/*---------------------------------------------------------------------------*\
| =========                 |                                                 |
| \\      /  F ield         | OpenFOAM: The Open Source CFD Toolbox           |
|  \\    /   O peration     | Version:  v1706                                 |
|   \\  /    A nd           | Web:      www.OpenFOAM.com                      |
|    \\/     M anipulation  |                                                 |
\*---------------------------------------------------------------------------*/
Build  : v1706
Arch   : "LSB;label=32;scalar=64"
Exec   : buoyantBoussinesqSimpleFoam -parallel
Date   : Nov 30 2017
Time   : 11:05:59
Host   : "default"
PID    : 14637
Case   : /home/ofuser/workingDir/butterfly/Duct_Simulation430oclock_9
nProcs : 3
Slaves : 
2
(
"default.14638"
"default.14639"
)

Pstream initialized with:
    floatTransfer      : 0
    nProcsSimpleSum    : 0
    commsType          : nonBlocking
    polling iterations : 0
sigFpe : Enabling floating point exception trapping (FOAM_SIGFPE).
fileModificationChecking : Monitoring run-time modified files using timeStampMaster (fileModificationSkew 10)
allowSystemOperations : Allowing user-supplied system call operations

// * * * * * * * * * * * * * * * * * * * * * * * * * * * * * * * * * * * * * //
Create time

Create mesh for time = 0


SIMPLE: convergence criteria
    field nut	 tolerance 0.001
    field p_rgh	 tolerance 0.01
    field k	 tolerance 0.01
    field U	 tolerance 0.001
    field T	 tolerance 0.001
    field epsilon	 tolerance 0.001
    field alphat	 tolerance 0.001

Reading thermophysical properties

Reading field T

Reading field p_rgh

Reading field U

Reading/calculating face flux field phi

Selecting incompressible transport model Newtonian
Creating turbulence model

Selecting turbulence model type RAS
Selecting RAS turbulence model RNGkEpsilon
RAS
{
    RASModel        RNGkEpsilon;
    turbulence      on;
    printCoeffs     on;
    Cmu             0.0845;
    C1              1.42;
    C2              1.68;
    C3              0;
    sigmak          0.71942;
    sigmaEps        0.71942;
    eta0            4.38;
    beta            0.012;
}

Reading field alphat


Reading g

Reading hRef
Calculating field g.h

No MRF models present

Radiation model not active: radiationProperties not found
Selecting radiationModel none
No finite volume options present


Starting time loop

--> FOAM Warning : 
    From function virtual void Foam::probes::findElements(const Foam::fvMesh&)
    in file probes/probes.C at line 122
    Did not find location (-0.008291422 -0.008129812 0.0005) in any cell. Skipping location.
--> FOAM Warning : 
    From function virtual void Foam::probes::findElements(const Foam::fvMesh&)
    in file probes/probes.C at line 122
    Did not find location (-0.008291422 -0.007823438 0.0005) in any cell. Skipping location.
--> FOAM Warning : 
    From function virtual void Foam::probes::findElements(const Foam::fvMesh&)
    in file probes/probes.C at line 122
    Did not find location (-0.008291422 -0.007517062 0.0005) in any cell. Skipping location.
--> FOAM Warning : 
    From function virtual void Foam::probes::findElements(const Foam::fvMesh&)
    in file probes/probes.C at line 122
    Did not find location (-0.008291422 -0.007210688 0.0005) in any cell. Skipping location.
--> FOAM Warning : 
    From function virtual void Foam::probes::findElements(const Foam::fvMesh&)
    in file probes/probes.C at line 122
    Did not find location (-0.008291422 -0.006904312 0.0005) in any cell. Skipping location.
--> FOAM Warning : 
    From function virtual void Foam::probes::findElements(const Foam::fvMesh&)
    in file probes/probes.C at line 122
    Did not find location (-0.008291422 -0.006597938 0.0005) in any cell. Skipping location.
--> FOAM Warning : 
    From function virtual void Foam::probes::findElements(const Foam::fvMesh&)
    in file probes/probes.C at line 122
    Did not find location (-0.008291422 -0.006291562 0.0005) in any cell. Skipping location.
--> FOAM Warning : 
    From function virtual void Foam::probes::findElements(const Foam::fvMesh&)
    in file probes/probes.C at line 122
    Did not find location (-0.008291422 -0.005985188 0.0005) in any cell. Skipping location.
--> FOAM Warning : 
    From function virtual void Foam::probes::findElements(const Foam::fvMesh&)
    in file probes/probes.C at line 122
    Did not find location (-0.008291422 -0.005678813 0.0005) in any cell. Skipping location.
--> FOAM Warning : 
    From function virtual void Foam::probes::findElements(const Foam::fvMesh&)
    in file probes/probes.C at line 122
    Did not find location (-0.008291422 -0.005372437 0.0005) in any cell. Skipping location.
--> FOAM Warning : 
    From function virtual void Foam::probes::findElements(const Foam::fvMesh&)
    in file probes/probes.C at line 122
    Did not find location (-0.008291422 -0.005066063 0.0005) in any cell. Skipping location.
--> FOAM Warning : 
    From function virtual void Foam::probes::findElements(const Foam::fvMesh&)
    in file probes/probes.C at line 122
    Did not find location (-0.008291422 -0.004759687 0.0005) in any cell. Skipping location.
--> FOAM Warning : 
    From function virtual void Foam::probes::findElements(const Foam::fvMesh&)
    in file probes/probes.C at line 122
    Did not find location (-0.008291422 -0.004453313 0.0005) in any cell. Skipping location.
--> FOAM Warning : 
    From function virtual void Foam::probes::findElements(const Foam::fvMesh&)
    in file probes/probes.C at line 122
    Did not find location (-0.008291422 -0.004146937 0.0005) in any cell. Skipping location.
--> FOAM Warning : 
    From function virtual void Foam::probes::findElements(const Foam::fvMesh&)
    in file probes/probes.C at line 122
    Did not find location (-0.008291422 -0.003840563 0.0005) in any cell. Skipping location.
--> FOAM Warning : 
    From function virtual void Foam::probes::findElements(const Foam::fvMesh&)
    in file probes/probes.C at line 122
    Did not find location (-0.008291422 -0.003534188 0.0005) in any cell. Skipping location.
--> FOAM Warning : 
    From function virtual void Foam::probes::findElements(const Foam::fvMesh&)
    in file probes/probes.C at line 122
    Did not find location (-0.008291422 -0.003227813 0.0005) in any cell. Skipping location.
--> FOAM Warning : 
    From function virtual void Foam::probes::findElements(const Foam::fvMesh&)
    in file probes/probes.C at line 122
    Did not find location (-0.008291422 -0.002921437 0.0005) in any cell. Skipping location.
--> FOAM Warning : 
    From function virtual void Foam::probes::findElements(const Foam::fvMesh&)
    in file probes/probes.C at line 122
    Did not find location (-0.008291422 -0.002615062 0.0005) in any cell. Skipping location.
--> FOAM Warning : 
    From function virtual void Foam::probes::findElements(const Foam::fvMesh&)
    in file probes/probes.C at line 122
    Did not find location (-0.008291422 -0.002308687 0.0005) in any cell. Skipping location.
--> FOAM Warning : 
    From function virtual void Foam::probes::findElements(const Foam::fvMesh&)
    in file probes/probes.C at line 122
    Did not find location (-0.008291422 -0.002002312 0.0005) in any cell. Skipping location.
--> FOAM Warning : 
    From function virtual void Foam::probes::findElements(const Foam::fvMesh&)
    in file probes/probes.C at line 122
    Did not find location (-0.008291422 -0.001695938 0.0005) in any cell. Skipping location.
--> FOAM Warning : 
    From function virtual void Foam::probes::findElements(const Foam::fvMesh&)
    in file probes/probes.C at line 122
    Did not find location (-0.008291422 -0.001389562 0.0005) in any cell. Skipping location.
--> FOAM Warning : 
    From function virtual void Foam::probes::findElements(const Foam::fvMesh&)
    in file probes/probes.C at line 122
    Did not find location (-0.008291422 -0.001083187 0.0005) in any cell. Skipping location.
--> FOAM Warning : 
    From function virtual void Foam::probes::findElements(const Foam::fvMesh&)
    in file probes/probes.C at line 122
    Did not find location (-0.008291422 -0.0007768125 0.0005) in any cell. Skipping location.
--> FOAM Warning : 
    From function virtual void Foam::probes::findElements(const Foam::fvMesh&)
    in file probes/probes.C at line 122
    Did not find location (-0.008291422 -0.0004704375 0.0005) in any cell. Skipping location.
--> FOAM Warning : 
    From function virtual void Foam::probes::findElements(const Foam::fvMesh&)
    in file probes/probes.C at line 122
    Did not find location (-0.008291422 -0.0001640625 0.0005) in any cell. Skipping location.
--> FOAM Warning : 
    From function virtual void Foam::probes::findElements(const Foam::fvMesh&)
    in file probes/probes.C at line 122
    Did not find location (-0.008291422 0.0001423125 0.0005) in any cell. Skipping location.
--> FOAM Warning : 
    From function virtual void Foam::probes::findElements(const Foam::fvMesh&)
    in file probes/probes.C at line 122
    Did not find location (-0.008291422 0.0004486875 0.0005) in any cell. Skipping location.
--> FOAM Warning : 
    From function virtual void Foam::probes::findElements(const Foam::fvMesh&)
    in file probes/probes.C at line 122
    Did not find location (-0.008291422 0.0007550625 0.0005) in any cell. Skipping location.
--> FOAM Warning : 
    From function virtual void Foam::probes::findElements(const Foam::fvMesh&)
    in file probes/probes.C at line 122
    Did not find location (-0.008291422 0.001061437 0.0005) in any cell. Skipping location.
--> FOAM Warning : 
    From function virtual void Foam::probes::findElements(const Foam::fvMesh&)
    in file probes/probes.C at line 122
    Did not find location (-0.008291422 0.001367813 0.0005) in any cell. Skipping location.
--> FOAM Warning : 
    From function virtual void Foam::probes::findElements(const Foam::fvMesh&)
    in file probes/probes.C at line 122
    Did not find location (-0.007990265 -0.008129812 0.0005) in any cell. Skipping location.
--> FOAM Warning : 
    From function virtual void Foam::probes::findElements(const Foam::fvMesh&)
    in file probes/probes.C at line 122
    Did not find location (-0.007990265 -0.007823438 0.0005) in any cell. Skipping location.
--> FOAM Warning : 
    From function virtual void Foam::probes::findElements(const Foam::fvMesh&)
    in file probes/probes.C at line 122
    Did not find location (-0.007990265 -0.007517062 0.0005) in any cell. Skipping location.
--> FOAM Warning : 
    From function virtual void Foam::probes::findElements(const Foam::fvMesh&)
    in file probes/probes.C at line 122
    Did not find location (-0.007990265 -0.007210688 0.0005) in any cell. Skipping location.
--> FOAM Warning : 
    From function virtual void Foam::probes::findElements(const Foam::fvMesh&)
    in file probes/probes.C at line 122
    Did not find location (-0.007990265 -0.006904312 0.0005) in any cell. Skipping location.
--> FOAM Warning : 
    From function virtual void Foam::probes::findElements(const Foam::fvMesh&)
    in file probes/probes.C at line 122
    Did not find location (-0.007990265 -0.006597938 0.0005) in any cell. Skipping location.
--> FOAM Warning : 
    From function virtual void Foam::probes::findElements(const Foam::fvMesh&)
    in file probes/probes.C at line 122
    Did not find location (-0.007990265 -0.006291562 0.0005) in any cell. Skipping location.
--> FOAM Warning : 
    From function virtual void Foam::probes::findElements(const Foam::fvMesh&)
    in file probes/probes.C at line 122
    Did not find location (-0.007990265 -0.005985188 0.0005) in any cell. Skipping location.
--> FOAM Warning : 
    From function virtual void Foam::probes::findElements(const Foam::fvMesh&)
    in file probes/probes.C at line 122
    Did not find location (-0.007990265 -0.005678813 0.0005) in any cell. Skipping location.
--> FOAM Warning : 
    From function virtual void Foam::probes::findElements(const Foam::fvMesh&)
    in file probes/probes.C at line 122
    Did not find location (-0.007990265 -0.005372437 0.0005) in any cell. Skipping location.
--> FOAM Warning : 
    From function virtual void Foam::probes::findElements(const Foam::fvMesh&)
    in file probes/probes.C at line 122
    Did not find location (-0.007990265 -0.005066063 0.0005) in any cell. Skipping location.
--> FOAM Warning : 
    From function virtual void Foam::probes::findElements(const Foam::fvMesh&)
    in file probes/probes.C at line 122
    Did not find location (-0.007990265 -0.004759687 0.0005) in any cell. Skipping location.
--> FOAM Warning : 
    From function virtual void Foam::probes::findElements(const Foam::fvMesh&)
    in file probes/probes.C at line 122
    Did not find location (-0.007990265 -0.004453313 0.0005) in any cell. Skipping location.
--> FOAM Warning : 
    From function virtual void Foam::probes::findElements(const Foam::fvMesh&)
    in file probes/probes.C at line 122
    Did not find location (-0.007990265 -0.004146937 0.0005) in any cell. Skipping location.
--> FOAM Warning : 
    From function virtual void Foam::probes::findElements(const Foam::fvMesh&)
    in file probes/probes.C at line 122
    Did not find location (-0.007990265 -0.003840563 0.0005) in any cell. Skipping location.
--> FOAM Warning : 
    From function virtual void Foam::probes::findElements(const Foam::fvMesh&)
    in file probes/probes.C at line 122
    Did not find location (-0.007990265 -0.003534188 0.0005) in any cell. Skipping location.
--> FOAM Warning : 
    From function virtual void Foam::probes::findElements(const Foam::fvMesh&)
    in file probes/probes.C at line 122
    Did not find location (-0.007990265 -0.003227813 0.0005) in any cell. Skipping location.
--> FOAM Warning : 
    From function virtual void Foam::probes::findElements(const Foam::fvMesh&)
    in file probes/probes.C at line 122
    Did not find location (-0.007990265 -0.002921437 0.0005) in any cell. Skipping location.
--> FOAM Warning : 
    From function virtual void Foam::probes::findElements(const Foam::fvMesh&)
    in file probes/probes.C at line 122
    Did not find location (-0.007990265 -0.002615062 0.0005) in any cell. Skipping location.
--> FOAM Warning : 
    From function virtual void Foam::probes::findElements(const Foam::fvMesh&)
    in file probes/probes.C at line 122
    Did not find location (-0.007990265 -0.002308687 0.0005) in any cell. Skipping location.
--> FOAM Warning : 
    From function virtual void Foam::probes::findElements(const Foam::fvMesh&)
    in file probes/probes.C at line 122
    Did not find location (-0.007990265 -0.002002312 0.0005) in any cell. Skipping location.
--> FOAM Warning : 
    From function virtual void Foam::probes::findElements(const Foam::fvMesh&)
    in file probes/probes.C at line 122
    Did not find location (-0.007990265 -0.001695938 0.0005) in any cell. Skipping location.
--> FOAM Warning : 
    From function virtual void Foam::probes::findElements(const Foam::fvMesh&)
    in file probes/probes.C at line 122
    Did not find location (-0.007990265 -0.001389562 0.0005) in any cell. Skipping location.
--> FOAM Warning : 
    From function virtual void Foam::probes::findElements(const Foam::fvMesh&)
    in file probes/probes.C at line 122
    Did not find location (-0.007990265 -0.001083187 0.0005) in any cell. Skipping location.
--> FOAM Warning : 
    From function virtual void Foam::probes::findElements(const Foam::fvMesh&)
    in file probes/probes.C at line 122
    Did not find location (-0.007990265 -0.0007768125 0.0005) in any cell. Skipping location.
--> FOAM Warning : 
    From function virtual void Foam::probes::findElements(const Foam::fvMesh&)
    in file probes/probes.C at line 122
    Did not find location (-0.007990265 -0.0004704375 0.0005) in any cell. Skipping location.
--> FOAM Warning : 
    From function virtual void Foam::probes::findElements(const Foam::fvMesh&)
    in file probes/probes.C at line 122
    Did not find location (-0.007990265 -0.0001640625 0.0005) in any cell. Skipping location.
--> FOAM Warning : 
    From function virtual void Foam::probes::findElements(const Foam::fvMesh&)
    in file probes/probes.C at line 122
    Did not find location (-0.007990265 0.0001423125 0.0005) in any cell. Skipping location.
--> FOAM Warning : 
    From function virtual void Foam::probes::findElements(const Foam::fvMesh&)
    in file probes/probes.C at line 122
    Did not find location (-0.007990265 0.0004486875 0.0005) in any cell. Skipping location.
--> FOAM Warning : 
    From function virtual void Foam::probes::findElements(const Foam::fvMesh&)
    in file probes/probes.C at line 122
    Did not find location (-0.007990265 0.0007550625 0.0005) in any cell. Skipping location.
--> FOAM Warning : 
    From function virtual void Foam::probes::findElements(const Foam::fvMesh&)
    in file probes/probes.C at line 122
    Did not find location (-0.007990265 0.001061437 0.0005) in any cell. Skipping location.
--> FOAM Warning : 
    From function virtual void Foam::probes::findElements(const Foam::fvMesh&)
    in file probes/probes.C at line 122
    Did not find location (-0.007990265 0.001367813 0.0005) in any cell. Skipping location.
--> FOAM Warning : 
    From function virtual void Foam::probes::findElements(const Foam::fvMesh&)
    in file probes/probes.C at line 122
    Did not find location (-0.007689108 -0.008129812 0.0005) in any cell. Skipping location.
--> FOAM Warning : 
    From function virtual void Foam::probes::findElements(const Foam::fvMesh&)
    in file probes/probes.C at line 122
    Did not find location (-0.007689108 -0.007823438 0.0005) in any cell. Skipping location.
--> FOAM Warning : 
    From function virtual void Foam::probes::findElements(const Foam::fvMesh&)
    in file probes/probes.C at line 122
    Did not find location (-0.007689108 -0.007517062 0.0005) in any cell. Skipping location.
--> FOAM Warning : 
    From function virtual void Foam::probes::findElements(const Foam::fvMesh&)
    in file probes/probes.C at line 122
    Did not find location (-0.007689108 -0.007210688 0.0005) in any cell. Skipping location.
--> FOAM Warning : 
    From function virtual void Foam::probes::findElements(const Foam::fvMesh&)
    in file probes/probes.C at line 122
    Did not find location (-0.007689108 -0.006904312 0.0005) in any cell. Skipping location.
--> FOAM Warning : 
    From function virtual void Foam::probes::findElements(const Foam::fvMesh&)
    in file probes/probes.C at line 122
    Did not find location (-0.007689108 -0.006597938 0.0005) in any cell. Skipping location.
--> FOAM Warning : 
    From function virtual void Foam::probes::findElements(const Foam::fvMesh&)
    in file probes/probes.C at line 122
    Did not find location (-0.007689108 -0.006291562 0.0005) in any cell. Skipping location.
--> FOAM Warning : 
    From function virtual void Foam::probes::findElements(const Foam::fvMesh&)
    in file probes/probes.C at line 122
    Did not find location (-0.007689108 -0.005985188 0.0005) in any cell. Skipping location.
--> FOAM Warning : 
    From function virtual void Foam::probes::findElements(const Foam::fvMesh&)
    in file probes/probes.C at line 122
    Did not find location (-0.007689108 -0.005678813 0.0005) in any cell. Skipping location.
--> FOAM Warning : 
    From function virtual void Foam::probes::findElements(const Foam::fvMesh&)
    in file probes/probes.C at line 122
    Did not find location (-0.007689108 -0.005372437 0.0005) in any cell. Skipping location.
--> FOAM Warning : 
    From function virtual void Foam::probes::findElements(const Foam::fvMesh&)
    in file probes/probes.C at line 122
    Did not find location (-0.007689108 -0.005066063 0.0005) in any cell. Skipping location.
--> FOAM Warning : 
    From function virtual void Foam::probes::findElements(const Foam::fvMesh&)
    in file probes/probes.C at line 122
    Did not find location (-0.007689108 -0.004759687 0.0005) in any cell. Skipping location.
--> FOAM Warning : 
    From function virtual void Foam::probes::findElements(const Foam::fvMesh&)
    in file probes/probes.C at line 122
    Did not find location (-0.007689108 -0.004453313 0.0005) in any cell. Skipping location.
--> FOAM Warning : 
    From function virtual void Foam::probes::findElements(const Foam::fvMesh&)
    in file probes/probes.C at line 122
    Did not find location (-0.007689108 -0.004146937 0.0005) in any cell. Skipping location.
--> FOAM Warning : 
    From function virtual void Foam::probes::findElements(const Foam::fvMesh&)
    in file probes/probes.C at line 122
    Did not find location (-0.007689108 -0.003840563 0.0005) in any cell. Skipping location.
--> FOAM Warning : 
    From function virtual void Foam::probes::findElements(const Foam::fvMesh&)
    in file probes/probes.C at line 122
    Did not find location (-0.007689108 -0.003534188 0.0005) in any cell. Skipping location.
--> FOAM Warning : 
    From function virtual void Foam::probes::findElements(const Foam::fvMesh&)
    in file probes/probes.C at line 122
    Did not find location (-0.007689108 -0.003227813 0.0005) in any cell. Skipping location.
--> FOAM Warning : 
    From function virtual void Foam::probes::findElements(const Foam::fvMesh&)
    in file probes/probes.C at line 122
    Did not find location (-0.007689108 -0.002921437 0.0005) in any cell. Skipping location.
--> FOAM Warning : 
    From function virtual void Foam::probes::findElements(const Foam::fvMesh&)
    in file probes/probes.C at line 122
    Did not find location (-0.007689108 -0.002615062 0.0005) in any cell. Skipping location.
--> FOAM Warning : 
    From function virtual void Foam::probes::findElements(const Foam::fvMesh&)
    in file probes/probes.C at line 122
    Did not find location (-0.007689108 -0.002308687 0.0005) in any cell. Skipping location.
--> FOAM Warning : 
    From function virtual void Foam::probes::findElements(const Foam::fvMesh&)
    in file probes/probes.C at line 122
    Did not find location (-0.007689108 -0.002002312 0.0005) in any cell. Skipping location.
--> FOAM Warning : 
    From function virtual void Foam::probes::findElements(const Foam::fvMesh&)
    in file probes/probes.C at line 122
    Did not find location (-0.007689108 -0.001695938 0.0005) in any cell. Skipping location.
--> FOAM Warning : 
    From function virtual void Foam::probes::findElements(const Foam::fvMesh&)
    in file probes/probes.C at line 122
    Did not find location (-0.007689108 -0.001389562 0.0005) in any cell. Skipping location.
--> FOAM Warning : 
    From function virtual void Foam::probes::findElements(const Foam::fvMesh&)
    in file probes/probes.C at line 122
    Did not find location (-0.007689108 -0.001083187 0.0005) in any cell. Skipping location.
--> FOAM Warning : 
    From function virtual void Foam::probes::findElements(const Foam::fvMesh&)
    in file probes/probes.C at line 122
    Did not find location (-0.007689108 -0.0007768125 0.0005) in any cell. Skipping location.
--> FOAM Warning : 
    From function virtual void Foam::probes::findElements(const Foam::fvMesh&)
    in file probes/probes.C at line 122
    Did not find location (-0.007689108 -0.0004704375 0.0005) in any cell. Skipping location.
--> FOAM Warning : 
    From function virtual void Foam::probes::findElements(const Foam::fvMesh&)
    in file probes/probes.C at line 122
    Did not find location (-0.007689108 -0.0001640625 0.0005) in any cell. Skipping location.
--> FOAM Warning : 
    From function virtual void Foam::probes::findElements(const Foam::fvMesh&)
    in file probes/probes.C at line 122
    Did not find location (-0.007689108 0.0001423125 0.0005) in any cell. Skipping location.
--> FOAM Warning : 
    From function virtual void Foam::probes::findElements(const Foam::fvMesh&)
    in file probes/probes.C at line 122
    Did not find location (-0.007689108 0.0004486875 0.0005) in any cell. Skipping location.
--> FOAM Warning : 
    From function virtual void Foam::probes::findElements(const Foam::fvMesh&)
    in file probes/probes.C at line 122
    Did not find location (-0.007689108 0.0007550625 0.0005) in any cell. Skipping location.
--> FOAM Warning : 
    From function virtual void Foam::probes::findElements(const Foam::fvMesh&)
    in file probes/probes.C at line 122
    Did not find location (-0.007689108 0.001061437 0.0005) in any cell. Skipping location.
--> FOAM Warning : 
    From function virtual void Foam::probes::findElements(const Foam::fvMesh&)
    in file probes/probes.C at line 122
    Did not find location (-0.007689108 0.001367813 0.0005) in any cell. Skipping location.
--> FOAM Warning : 
    From function virtual void Foam::probes::findElements(const Foam::fvMesh&)
    in file probes/probes.C at line 122
    Did not find location (-0.007387951 -0.008129812 0.0005) in any cell. Skipping location.
--> FOAM Warning : 
    From function virtual void Foam::probes::findElements(const Foam::fvMesh&)
    in file probes/probes.C at line 122
    Did not find location (-0.007387951 -0.007823438 0.0005) in any cell. Skipping location.
--> FOAM Warning : 
    From function virtual void Foam::probes::findElements(const Foam::fvMesh&)
    in file probes/probes.C at line 122
    Did not find location (-0.007387951 -0.007517062 0.0005) in any cell. Skipping location.
--> FOAM Warning : 
    From function virtual void Foam::probes::findElements(const Foam::fvMesh&)
    in file probes/probes.C at line 122
    Did not find location (-0.007387951 -0.007210688 0.0005) in any cell. Skipping location.
--> FOAM Warning : 
    From function virtual void Foam::probes::findElements(const Foam::fvMesh&)
    in file probes/probes.C at line 122
    Did not find location (-0.007387951 -0.006904312 0.0005) in any cell. Skipping location.
--> FOAM Warning : 
    From function virtual void Foam::probes::findElements(const Foam::fvMesh&)
    in file probes/probes.C at line 122
    Did not find location (-0.007387951 -0.006597938 0.0005) in any cell. Skipping location.
--> FOAM Warning : 
    From function virtual void Foam::probes::findElements(const Foam::fvMesh&)
    in file probes/probes.C at line 122
    Did not find location (-0.007387951 -0.006291562 0.0005) in any cell. Skipping location.
--> FOAM Warning : 
    From function virtual void Foam::probes::findElements(const Foam::fvMesh&)
    in file probes/probes.C at line 122
    Did not find location (-0.007387951 -0.005985188 0.0005) in any cell. Skipping location.
--> FOAM Warning : 
    From function virtual void Foam::probes::findElements(const Foam::fvMesh&)
    in file probes/probes.C at line 122
    Did not find location (-0.007387951 -0.005678813 0.0005) in any cell. Skipping location.
--> FOAM Warning : 
    From function virtual void Foam::probes::findElements(const Foam::fvMesh&)
    in file probes/probes.C at line 122
    Did not find location (-0.007387951 -0.005372437 0.0005) in any cell. Skipping location.
--> FOAM Warning : 
    From function virtual void Foam::probes::findElements(const Foam::fvMesh&)
    in file probes/probes.C at line 122
    Did not find location (-0.007387951 -0.005066063 0.0005) in any cell. Skipping location.
--> FOAM Warning : 
    From function virtual void Foam::probes::findElements(const Foam::fvMesh&)
    in file probes/probes.C at line 122
    Did not find location (-0.007387951 -0.004759687 0.0005) in any cell. Skipping location.
--> FOAM Warning : 
    From function virtual void Foam::probes::findElements(const Foam::fvMesh&)
    in file probes/probes.C at line 122
    Did not find location (-0.007387951 -0.004453313 0.0005) in any cell. Skipping location.
--> FOAM Warning : 
    From function virtual void Foam::probes::findElements(const Foam::fvMesh&)
    in file probes/probes.C at line 122
    Did not find location (-0.007387951 -0.004146937 0.0005) in any cell. Skipping location.
--> FOAM Warning : 
    From function virtual void Foam::probes::findElements(const Foam::fvMesh&)
    in file probes/probes.C at line 122
    Did not find location (-0.007387951 -0.003840563 0.0005) in any cell. Skipping location.
--> FOAM Warning : 
    From function virtual void Foam::probes::findElements(const Foam::fvMesh&)
    in file probes/probes.C at line 122
    Did not find location (-0.007387951 -0.003534188 0.0005) in any cell. Skipping location.
--> FOAM Warning : 
    From function virtual void Foam::probes::findElements(const Foam::fvMesh&)
    in file probes/probes.C at line 122
    Did not find location (-0.007387951 -0.003227813 0.0005) in any cell. Skipping location.
--> FOAM Warning : 
    From function virtual void Foam::probes::findElements(const Foam::fvMesh&)
    in file probes/probes.C at line 122
    Did not find location (-0.007387951 -0.002921437 0.0005) in any cell. Skipping location.
--> FOAM Warning : 
    From function virtual void Foam::probes::findElements(const Foam::fvMesh&)
    in file probes/probes.C at line 122
    Did not find location (-0.007387951 -0.002615062 0.0005) in any cell. Skipping location.
--> FOAM Warning : 
    From function virtual void Foam::probes::findElements(const Foam::fvMesh&)
    in file probes/probes.C at line 122
    Did not find location (-0.007387951 -0.002308687 0.0005) in any cell. Skipping location.
--> FOAM Warning : 
    From function virtual void Foam::probes::findElements(const Foam::fvMesh&)
    in file probes/probes.C at line 122
    Did not find location (-0.007387951 -0.002002312 0.0005) in any cell. Skipping location.
--> FOAM Warning : 
    From function virtual void Foam::probes::findElements(const Foam::fvMesh&)
    in file probes/probes.C at line 122
    Did not find location (-0.007387951 -0.001695938 0.0005) in any cell. Skipping location.
--> FOAM Warning : 
    From function virtual void Foam::probes::findElements(const Foam::fvMesh&)
    in file probes/probes.C at line 122
    Did not find location (-0.007387951 -0.001389562 0.0005) in any cell. Skipping location.
--> FOAM Warning : 
    From function virtual void Foam::probes::findElements(const Foam::fvMesh&)
    in file probes/probes.C at line 122
    Did not find location (-0.007387951 -0.001083187 0.0005) in any cell. Skipping location.
--> FOAM Warning : 
    From function virtual void Foam::probes::findElements(const Foam::fvMesh&)
    in file probes/probes.C at line 122
    Did not find location (-0.007387951 -0.0007768125 0.0005) in any cell. Skipping location.
--> FOAM Warning : 
    From function virtual void Foam::probes::findElements(const Foam::fvMesh&)
    in file probes/probes.C at line 122
    Did not find location (-0.007387951 -0.0004704375 0.0005) in any cell. Skipping location.
--> FOAM Warning : 
    From function virtual void Foam::probes::findElements(const Foam::fvMesh&)
    in file probes/probes.C at line 122
    Did not find location (-0.007387951 -0.0001640625 0.0005) in any cell. Skipping location.
--> FOAM Warning : 
    From function virtual void Foam::probes::findElements(const Foam::fvMesh&)
    in file probes/probes.C at line 122
    Did not find location (-0.007387951 0.0001423125 0.0005) in any cell. Skipping location.
--> FOAM Warning : 
    From function virtual void Foam::probes::findElements(const Foam::fvMesh&)
    in file probes/probes.C at line 122
    Did not find location (-0.007387951 0.0004486875 0.0005) in any cell. Skipping location.
--> FOAM Warning : 
    From function virtual void Foam::probes::findElements(const Foam::fvMesh&)
    in file probes/probes.C at line 122
    Did not find location (-0.007387951 0.0007550625 0.0005) in any cell. Skipping location.
--> FOAM Warning : 
    From function virtual void Foam::probes::findElements(const Foam::fvMesh&)
    in file probes/probes.C at line 122
    Did not find location (-0.007387951 0.001061437 0.0005) in any cell. Skipping location.
--> FOAM Warning : 
    From function virtual void Foam::probes::findElements(const Foam::fvMesh&)
    in file probes/probes.C at line 122
    Did not find location (-0.007387951 0.001367813 0.0005) in any cell. Skipping location.
--> FOAM Warning : 
    From function virtual void Foam::probes::findElements(const Foam::fvMesh&)
    in file probes/probes.C at line 122
    Did not find location (-0.007086794 -0.008129812 0.0005) in any cell. Skipping location.
--> FOAM Warning : 
    From function virtual void Foam::probes::findElements(const Foam::fvMesh&)
    in file probes/probes.C at line 122
    Did not find location (-0.007086794 -0.007823438 0.0005) in any cell. Skipping location.
--> FOAM Warning : 
    From function virtual void Foam::probes::findElements(const Foam::fvMesh&)
    in file probes/probes.C at line 122
    Did not find location (-0.007086794 -0.007517062 0.0005) in any cell. Skipping location.
--> FOAM Warning : 
    From function virtual void Foam::probes::findElements(const Foam::fvMesh&)
    in file probes/probes.C at line 122
    Did not find location (-0.007086794 -0.007210688 0.0005) in any cell. Skipping location.
--> FOAM Warning : 
    From function virtual void Foam::probes::findElements(const Foam::fvMesh&)
    in file probes/probes.C at line 122
    Did not find location (-0.007086794 -0.006904312 0.0005) in any cell. Skipping location.
--> FOAM Warning : 
    From function virtual void Foam::probes::findElements(const Foam::fvMesh&)
    in file probes/probes.C at line 122
    Did not find location (-0.007086794 -0.006597938 0.0005) in any cell. Skipping location.
--> FOAM Warning : 
    From function virtual void Foam::probes::findElements(const Foam::fvMesh&)
    in file probes/probes.C at line 122
    Did not find location (-0.007086794 -0.006291562 0.0005) in any cell. Skipping location.
--> FOAM Warning : 
    From function virtual void Foam::probes::findElements(const Foam::fvMesh&)
    in file probes/probes.C at line 122
    Did not find location (-0.007086794 -0.005985188 0.0005) in any cell. Skipping location.
--> FOAM Warning : 
    From function virtual void Foam::probes::findElements(const Foam::fvMesh&)
    in file probes/probes.C at line 122
    Did not find location (-0.007086794 -0.005678813 0.0005) in any cell. Skipping location.
--> FOAM Warning : 
    From function virtual void Foam::probes::findElements(const Foam::fvMesh&)
    in file probes/probes.C at line 122
    Did not find location (-0.007086794 -0.005372437 0.0005) in any cell. Skipping location.
--> FOAM Warning : 
    From function virtual void Foam::probes::findElements(const Foam::fvMesh&)
    in file probes/probes.C at line 122
    Did not find location (-0.007086794 -0.005066063 0.0005) in any cell. Skipping location.
--> FOAM Warning : 
    From function virtual void Foam::probes::findElements(const Foam::fvMesh&)
    in file probes/probes.C at line 122
    Did not find location (-0.007086794 -0.004759687 0.0005) in any cell. Skipping location.
--> FOAM Warning : 
    From function virtual void Foam::probes::findElements(const Foam::fvMesh&)
    in file probes/probes.C at line 122
    Did not find location (-0.007086794 -0.004453313 0.0005) in any cell. Skipping location.
--> FOAM Warning : 
    From function virtual void Foam::probes::findElements(const Foam::fvMesh&)
    in file probes/probes.C at line 122
    Did not find location (-0.007086794 -0.004146937 0.0005) in any cell. Skipping location.
--> FOAM Warning : 
    From function virtual void Foam::probes::findElements(const Foam::fvMesh&)
    in file probes/probes.C at line 122
    Did not find location (-0.007086794 -0.003840563 0.0005) in any cell. Skipping location.
--> FOAM Warning : 
    From function virtual void Foam::probes::findElements(const Foam::fvMesh&)
    in file probes/probes.C at line 122
    Did not find location (-0.007086794 -0.003534188 0.0005) in any cell. Skipping location.
--> FOAM Warning : 
    From function virtual void Foam::probes::findElements(const Foam::fvMesh&)
    in file probes/probes.C at line 122
    Did not find location (-0.007086794 -0.003227813 0.0005) in any cell. Skipping location.
--> FOAM Warning : 
    From function virtual void Foam::probes::findElements(const Foam::fvMesh&)
    in file probes/probes.C at line 122
    Did not find location (-0.007086794 -0.002921437 0.0005) in any cell. Skipping location.
--> FOAM Warning : 
    From function virtual void Foam::probes::findElements(const Foam::fvMesh&)
    in file probes/probes.C at line 122
    Did not find location (-0.007086794 -0.002615062 0.0005) in any cell. Skipping location.
--> FOAM Warning : 
    From function virtual void Foam::probes::findElements(const Foam::fvMesh&)
    in file probes/probes.C at line 122
    Did not find location (-0.007086794 -0.002308687 0.0005) in any cell. Skipping location.
--> FOAM Warning : 
    From function virtual void Foam::probes::findElements(const Foam::fvMesh&)
    in file probes/probes.C at line 122
    Did not find location (-0.007086794 -0.002002312 0.0005) in any cell. Skipping location.
--> FOAM Warning : 
    From function virtual void Foam::probes::findElements(const Foam::fvMesh&)
    in file probes/probes.C at line 122
    Did not find location (-0.007086794 -0.001695938 0.0005) in any cell. Skipping location.
--> FOAM Warning : 
    From function virtual void Foam::probes::findElements(const Foam::fvMesh&)
    in file probes/probes.C at line 122
    Did not find location (-0.007086794 -0.001389562 0.0005) in any cell. Skipping location.
--> FOAM Warning : 
    From function virtual void Foam::probes::findElements(const Foam::fvMesh&)
    in file probes/probes.C at line 122
    Did not find location (-0.007086794 -0.001083187 0.0005) in any cell. Skipping location.
--> FOAM Warning : 
    From function virtual void Foam::probes::findElements(const Foam::fvMesh&)
    in file probes/probes.C at line 122
    Did not find location (-0.007086794 -0.0007768125 0.0005) in any cell. Skipping location.
--> FOAM Warning : 
    From function virtual void Foam::probes::findElements(const Foam::fvMesh&)
    in file probes/probes.C at line 122
    Did not find location (-0.007086794 -0.0004704375 0.0005) in any cell. Skipping location.
--> FOAM Warning : 
    From function virtual void Foam::probes::findElements(const Foam::fvMesh&)
    in file probes/probes.C at line 122
    Did not find location (-0.007086794 -0.0001640625 0.0005) in any cell. Skipping location.
--> FOAM Warning : 
    From function virtual void Foam::probes::findElements(const Foam::fvMesh&)
    in file probes/probes.C at line 122
    Did not find location (-0.007086794 0.0001423125 0.0005) in any cell. Skipping location.
--> FOAM Warning : 
    From function virtual void Foam::probes::findElements(const Foam::fvMesh&)
    in file probes/probes.C at line 122
    Did not find location (-0.007086794 0.0004486875 0.0005) in any cell. Skipping location.
--> FOAM Warning : 
    From function virtual void Foam::probes::findElements(const Foam::fvMesh&)
    in file probes/probes.C at line 122
    Did not find location (-0.007086794 0.0007550625 0.0005) in any cell. Skipping location.
--> FOAM Warning : 
    From function virtual void Foam::probes::findElements(const Foam::fvMesh&)
    in file probes/probes.C at line 122
    Did not find location (-0.007086794 0.001061437 0.0005) in any cell. Skipping location.
--> FOAM Warning : 
    From function virtual void Foam::probes::findElements(const Foam::fvMesh&)
    in file probes/probes.C at line 122
    Did not find location (-0.007086794 0.001367813 0.0005) in any cell. Skipping location.
--> FOAM Warning : 
    From function virtual void Foam::probes::findElements(const Foam::fvMesh&)
    in file probes/probes.C at line 122
    Did not find location (-0.006785637 -0.008129812 0.0005) in any cell. Skipping location.
--> FOAM Warning : 
    From function virtual void Foam::probes::findElements(const Foam::fvMesh&)
    in file probes/probes.C at line 122
    Did not find location (-0.006785637 -0.007823438 0.0005) in any cell. Skipping location.
--> FOAM Warning : 
    From function virtual void Foam::probes::findElements(const Foam::fvMesh&)
    in file probes/probes.C at line 122
    Did not find location (-0.006785637 -0.007517062 0.0005) in any cell. Skipping location.
--> FOAM Warning : 
    From function virtual void Foam::probes::findElements(const Foam::fvMesh&)
    in file probes/probes.C at line 122
    Did not find location (-0.006785637 -0.007210688 0.0005) in any cell. Skipping location.
--> FOAM Warning : 
    From function virtual void Foam::probes::findElements(const Foam::fvMesh&)
    in file probes/probes.C at line 122
    Did not find location (-0.006785637 -0.006904312 0.0005) in any cell. Skipping location.
--> FOAM Warning : 
    From function virtual void Foam::probes::findElements(const Foam::fvMesh&)
    in file probes/probes.C at line 122
    Did not find location (-0.006785637 -0.006597938 0.0005) in any cell. Skipping location.
--> FOAM Warning : 
    From function virtual void Foam::probes::findElements(const Foam::fvMesh&)
    in file probes/probes.C at line 122
    Did not find location (-0.006785637 -0.006291562 0.0005) in any cell. Skipping location.
--> FOAM Warning : 
    From function virtual void Foam::probes::findElements(const Foam::fvMesh&)
    in file probes/probes.C at line 122
    Did not find location (-0.006785637 -0.005985188 0.0005) in any cell. Skipping location.
--> FOAM Warning : 
    From function virtual void Foam::probes::findElements(const Foam::fvMesh&)
    in file probes/probes.C at line 122
    Did not find location (-0.006785637 -0.005678813 0.0005) in any cell. Skipping location.
--> FOAM Warning : 
    From function virtual void Foam::probes::findElements(const Foam::fvMesh&)
    in file probes/probes.C at line 122
    Did not find location (-0.006785637 -0.005372437 0.0005) in any cell. Skipping location.
--> FOAM Warning : 
    From function virtual void Foam::probes::findElements(const Foam::fvMesh&)
    in file probes/probes.C at line 122
    Did not find location (-0.006785637 -0.005066063 0.0005) in any cell. Skipping location.
--> FOAM Warning : 
    From function virtual void Foam::probes::findElements(const Foam::fvMesh&)
    in file probes/probes.C at line 122
    Did not find location (-0.006785637 -0.004759687 0.0005) in any cell. Skipping location.
--> FOAM Warning : 
    From function virtual void Foam::probes::findElements(const Foam::fvMesh&)
    in file probes/probes.C at line 122
    Did not find location (-0.006785637 -0.004453313 0.0005) in any cell. Skipping location.
--> FOAM Warning : 
    From function virtual void Foam::probes::findElements(const Foam::fvMesh&)
    in file probes/probes.C at line 122
    Did not find location (-0.006785637 -0.004146937 0.0005) in any cell. Skipping location.
--> FOAM Warning : 
    From function virtual void Foam::probes::findElements(const Foam::fvMesh&)
    in file probes/probes.C at line 122
    Did not find location (-0.006785637 -0.003840563 0.0005) in any cell. Skipping location.
--> FOAM Warning : 
    From function virtual void Foam::probes::findElements(const Foam::fvMesh&)
    in file probes/probes.C at line 122
    Did not find location (-0.006785637 -0.003534188 0.0005) in any cell. Skipping location.
--> FOAM Warning : 
    From function virtual void Foam::probes::findElements(const Foam::fvMesh&)
    in file probes/probes.C at line 122
    Did not find location (-0.006785637 -0.003227813 0.0005) in any cell. Skipping location.
--> FOAM Warning : 
    From function virtual void Foam::probes::findElements(const Foam::fvMesh&)
    in file probes/probes.C at line 122
    Did not find location (-0.006785637 -0.002921437 0.0005) in any cell. Skipping location.
--> FOAM Warning : 
    From function virtual void Foam::probes::findElements(const Foam::fvMesh&)
    in file probes/probes.C at line 122
    Did not find location (-0.006785637 -0.002615062 0.0005) in any cell. Skipping location.
--> FOAM Warning : 
    From function virtual void Foam::probes::findElements(const Foam::fvMesh&)
    in file probes/probes.C at line 122
    Did not find location (-0.006785637 -0.002308687 0.0005) in any cell. Skipping location.
--> FOAM Warning : 
    From function virtual void Foam::probes::findElements(const Foam::fvMesh&)
    in file probes/probes.C at line 122
    Did not find location (-0.006785637 -0.002002312 0.0005) in any cell. Skipping location.
--> FOAM Warning : 
    From function virtual void Foam::probes::findElements(const Foam::fvMesh&)
    in file probes/probes.C at line 122
    Did not find location (-0.006785637 -0.001695938 0.0005) in any cell. Skipping location.
--> FOAM Warning : 
    From function virtual void Foam::probes::findElements(const Foam::fvMesh&)
    in file probes/probes.C at line 122
    Did not find location (-0.006785637 -0.001389562 0.0005) in any cell. Skipping location.
--> FOAM Warning : 
    From function virtual void Foam::probes::findElements(const Foam::fvMesh&)
    in file probes/probes.C at line 122
    Did not find location (-0.006785637 -0.001083187 0.0005) in any cell. Skipping location.
--> FOAM Warning : 
    From function virtual void Foam::probes::findElements(const Foam::fvMesh&)
    in file probes/probes.C at line 122
    Did not find location (-0.006785637 -0.0007768125 0.0005) in any cell. Skipping location.
--> FOAM Warning : 
    From function virtual void Foam::probes::findElements(const Foam::fvMesh&)
    in file probes/probes.C at line 122
    Did not find location (-0.006785637 -0.0004704375 0.0005) in any cell. Skipping location.
--> FOAM Warning : 
    From function virtual void Foam::probes::findElements(const Foam::fvMesh&)
    in file probes/probes.C at line 122
    Did not find location (-0.006785637 -0.0001640625 0.0005) in any cell. Skipping location.
--> FOAM Warning : 
    From function virtual void Foam::probes::findElements(const Foam::fvMesh&)
    in file probes/probes.C at line 122
    Did not find location (-0.006785637 0.0001423125 0.0005) in any cell. Skipping location.
--> FOAM Warning : 
    From function virtual void Foam::probes::findElements(const Foam::fvMesh&)
    in file probes/probes.C at line 122
    Did not find location (-0.006785637 0.0004486875 0.0005) in any cell. Skipping location.
--> FOAM Warning : 
    From function virtual void Foam::probes::findElements(const Foam::fvMesh&)
    in file probes/probes.C at line 122
    Did not find location (-0.006785637 0.0007550625 0.0005) in any cell. Skipping location.
--> FOAM Warning : 
    From function virtual void Foam::probes::findElements(const Foam::fvMesh&)
    in file probes/probes.C at line 122
    Did not find location (-0.006785637 0.001061437 0.0005) in any cell. Skipping location.
--> FOAM Warning : 
    From function virtual void Foam::probes::findElements(const Foam::fvMesh&)
    in file probes/probes.C at line 122
    Did not find location (-0.006785637 0.001367813 0.0005) in any cell. Skipping location.
--> FOAM Warning : 
    From function virtual void Foam::probes::findElements(const Foam::fvMesh&)
    in file probes/probes.C at line 122
    Did not find location (-0.00648448 -0.008129812 0.0005) in any cell. Skipping location.
--> FOAM Warning : 
    From function virtual void Foam::probes::findElements(const Foam::fvMesh&)
    in file probes/probes.C at line 122
    Did not find location (-0.00648448 -0.007823438 0.0005) in any cell. Skipping location.
--> FOAM Warning : 
    From function virtual void Foam::probes::findElements(const Foam::fvMesh&)
    in file probes/probes.C at line 122
    Did not find location (-0.00648448 -0.007517062 0.0005) in any cell. Skipping location.
--> FOAM Warning : 
    From function virtual void Foam::probes::findElements(const Foam::fvMesh&)
    in file probes/probes.C at line 122
    Did not find location (-0.00648448 -0.007210688 0.0005) in any cell. Skipping location.
--> FOAM Warning : 
    From function virtual void Foam::probes::findElements(const Foam::fvMesh&)
    in file probes/probes.C at line 122
    Did not find location (-0.00648448 -0.006904312 0.0005) in any cell. Skipping location.
--> FOAM Warning : 
    From function virtual void Foam::probes::findElements(const Foam::fvMesh&)
    in file probes/probes.C at line 122
    Did not find location (-0.00648448 -0.006597938 0.0005) in any cell. Skipping location.
--> FOAM Warning : 
    From function virtual void Foam::probes::findElements(const Foam::fvMesh&)
    in file probes/probes.C at line 122
    Did not find location (-0.00648448 -0.006291562 0.0005) in any cell. Skipping location.
--> FOAM Warning : 
    From function virtual void Foam::probes::findElements(const Foam::fvMesh&)
    in file probes/probes.C at line 122
    Did not find location (-0.00648448 -0.005985188 0.0005) in any cell. Skipping location.
--> FOAM Warning : 
    From function virtual void Foam::probes::findElements(const Foam::fvMesh&)
    in file probes/probes.C at line 122
    Did not find location (-0.00648448 -0.005678813 0.0005) in any cell. Skipping location.
--> FOAM Warning : 
    From function virtual void Foam::probes::findElements(const Foam::fvMesh&)
    in file probes/probes.C at line 122
    Did not find location (-0.00648448 -0.005372437 0.0005) in any cell. Skipping location.
--> FOAM Warning : 
    From function virtual void Foam::probes::findElements(const Foam::fvMesh&)
    in file probes/probes.C at line 122
    Did not find location (-0.00648448 -0.005066063 0.0005) in any cell. Skipping location.
--> FOAM Warning : 
    From function virtual void Foam::probes::findElements(const Foam::fvMesh&)
    in file probes/probes.C at line 122
    Did not find location (-0.00648448 -0.004759687 0.0005) in any cell. Skipping location.
--> FOAM Warning : 
    From function virtual void Foam::probes::findElements(const Foam::fvMesh&)
    in file probes/probes.C at line 122
    Did not find location (-0.00648448 -0.004453313 0.0005) in any cell. Skipping location.
--> FOAM Warning : 
    From function virtual void Foam::probes::findElements(const Foam::fvMesh&)
    in file probes/probes.C at line 122
    Did not find location (-0.00648448 -0.004146937 0.0005) in any cell. Skipping location.
--> FOAM Warning : 
    From function virtual void Foam::probes::findElements(const Foam::fvMesh&)
    in file probes/probes.C at line 122
    Did not find location (-0.00648448 -0.003840563 0.0005) in any cell. Skipping location.
--> FOAM Warning : 
    From function virtual void Foam::probes::findElements(const Foam::fvMesh&)
    in file probes/probes.C at line 122
    Did not find location (-0.00648448 -0.003534188 0.0005) in any cell. Skipping location.
--> FOAM Warning : 
    From function virtual void Foam::probes::findElements(const Foam::fvMesh&)
    in file probes/probes.C at line 122
    Did not find location (-0.00648448 -0.003227813 0.0005) in any cell. Skipping location.
--> FOAM Warning : 
    From function virtual void Foam::probes::findElements(const Foam::fvMesh&)
    in file probes/probes.C at line 122
    Did not find location (-0.00648448 -0.002921437 0.0005) in any cell. Skipping location.
--> FOAM Warning : 
    From function virtual void Foam::probes::findElements(const Foam::fvMesh&)
    in file probes/probes.C at line 122
    Did not find location (-0.00648448 -0.002615062 0.0005) in any cell. Skipping location.
--> FOAM Warning : 
    From function virtual void Foam::probes::findElements(const Foam::fvMesh&)
    in file probes/probes.C at line 122
    Did not find location (-0.00648448 -0.002308687 0.0005) in any cell. Skipping location.
--> FOAM Warning : 
    From function virtual void Foam::probes::findElements(const Foam::fvMesh&)
    in file probes/probes.C at line 122
    Did not find location (-0.00648448 -0.002002312 0.0005) in any cell. Skipping location.
--> FOAM Warning : 
    From function virtual void Foam::probes::findElements(const Foam::fvMesh&)
    in file probes/probes.C at line 122
    Did not find location (-0.00648448 -0.001695938 0.0005) in any cell. Skipping location.
--> FOAM Warning : 
    From function virtual void Foam::probes::findElements(const Foam::fvMesh&)
    in file probes/probes.C at line 122
    Did not find location (-0.00648448 -0.001389562 0.0005) in any cell. Skipping location.
--> FOAM Warning : 
    From function virtual void Foam::probes::findElements(const Foam::fvMesh&)
    in file probes/probes.C at line 122
    Did not find location (-0.00648448 -0.001083187 0.0005) in any cell. Skipping location.
--> FOAM Warning : 
    From function virtual void Foam::probes::findElements(const Foam::fvMesh&)
    in file probes/probes.C at line 122
    Did not find location (-0.00648448 -0.0007768125 0.0005) in any cell. Skipping location.
--> FOAM Warning : 
    From function virtual void Foam::probes::findElements(const Foam::fvMesh&)
    in file probes/probes.C at line 122
    Did not find location (-0.00648448 -0.0004704375 0.0005) in any cell. Skipping location.
--> FOAM Warning : 
    From function virtual void Foam::probes::findElements(const Foam::fvMesh&)
    in file probes/probes.C at line 122
    Did not find location (-0.00648448 -0.0001640625 0.0005) in any cell. Skipping location.
--> FOAM Warning : 
    From function virtual void Foam::probes::findElements(const Foam::fvMesh&)
    in file probes/probes.C at line 122
    Did not find location (-0.00648448 0.0001423125 0.0005) in any cell. Skipping location.
--> FOAM Warning : 
    From function virtual void Foam::probes::findElements(const Foam::fvMesh&)
    in file probes/probes.C at line 122
    Did not find location (-0.00648448 0.0004486875 0.0005) in any cell. Skipping location.
--> FOAM Warning : 
    From function virtual void Foam::probes::findElements(const Foam::fvMesh&)
    in file probes/probes.C at line 122
    Did not find location (-0.00648448 0.0007550625 0.0005) in any cell. Skipping location.
--> FOAM Warning : 
    From function virtual void Foam::probes::findElements(const Foam::fvMesh&)
    in file probes/probes.C at line 122
    Did not find location (-0.00648448 0.001061437 0.0005) in any cell. Skipping location.
--> FOAM Warning : 
    From function virtual void Foam::probes::findElements(const Foam::fvMesh&)
    in file probes/probes.C at line 122
    Did not find location (-0.00648448 0.001367813 0.0005) in any cell. Skipping location.
--> FOAM Warning : 
    From function virtual void Foam::probes::findElements(const Foam::fvMesh&)
    in file probes/probes.C at line 122
    Did not find location (-0.006183323 -0.008129812 0.0005) in any cell. Skipping location.
--> FOAM Warning : 
    From function virtual void Foam::probes::findElements(const Foam::fvMesh&)
    in file probes/probes.C at line 122
    Did not find location (-0.006183323 -0.007823438 0.0005) in any cell. Skipping location.
--> FOAM Warning : 
    From function virtual void Foam::probes::findElements(const Foam::fvMesh&)
    in file probes/probes.C at line 122
    Did not find location (-0.006183323 -0.007517062 0.0005) in any cell. Skipping location.
--> FOAM Warning : 
    From function virtual void Foam::probes::findElements(const Foam::fvMesh&)
    in file probes/probes.C at line 122
    Did not find location (-0.006183323 -0.007210688 0.0005) in any cell. Skipping location.
--> FOAM Warning : 
    From function virtual void Foam::probes::findElements(const Foam::fvMesh&)
    in file probes/probes.C at line 122
    Did not find location (-0.006183323 -0.006904312 0.0005) in any cell. Skipping location.
--> FOAM Warning : 
    From function virtual void Foam::probes::findElements(const Foam::fvMesh&)
    in file probes/probes.C at line 122
    Did not find location (-0.006183323 -0.006597938 0.0005) in any cell. Skipping location.
--> FOAM Warning : 
    From function virtual void Foam::probes::findElements(const Foam::fvMesh&)
    in file probes/probes.C at line 122
    Did not find location (-0.006183323 -0.006291562 0.0005) in any cell. Skipping location.
--> FOAM Warning : 
    From function virtual void Foam::probes::findElements(const Foam::fvMesh&)
    in file probes/probes.C at line 122
    Did not find location (-0.006183323 -0.005985188 0.0005) in any cell. Skipping location.
--> FOAM Warning : 
    From function virtual void Foam::probes::findElements(const Foam::fvMesh&)
    in file probes/probes.C at line 122
    Did not find location (-0.006183323 -0.005678813 0.0005) in any cell. Skipping location.
--> FOAM Warning : 
    From function virtual void Foam::probes::findElements(const Foam::fvMesh&)
    in file probes/probes.C at line 122
    Did not find location (-0.006183323 -0.005372437 0.0005) in any cell. Skipping location.
--> FOAM Warning : 
    From function virtual void Foam::probes::findElements(const Foam::fvMesh&)
    in file probes/probes.C at line 122
    Did not find location (-0.006183323 -0.005066063 0.0005) in any cell. Skipping location.
--> FOAM Warning : 
    From function virtual void Foam::probes::findElements(const Foam::fvMesh&)
    in file probes/probes.C at line 122
    Did not find location (-0.006183323 -0.004759687 0.0005) in any cell. Skipping location.
--> FOAM Warning : 
    From function virtual void Foam::probes::findElements(const Foam::fvMesh&)
    in file probes/probes.C at line 122
    Did not find location (-0.006183323 -0.004453313 0.0005) in any cell. Skipping location.
--> FOAM Warning : 
    From function virtual void Foam::probes::findElements(const Foam::fvMesh&)
    in file probes/probes.C at line 122
    Did not find location (-0.006183323 -0.004146937 0.0005) in any cell. Skipping location.
--> FOAM Warning : 
    From function virtual void Foam::probes::findElements(const Foam::fvMesh&)
    in file probes/probes.C at line 122
    Did not find location (-0.006183323 -0.003840563 0.0005) in any cell. Skipping location.
--> FOAM Warning : 
    From function virtual void Foam::probes::findElements(const Foam::fvMesh&)
    in file probes/probes.C at line 122
    Did not find location (-0.006183323 -0.003534188 0.0005) in any cell. Skipping location.
--> FOAM Warning : 
    From function virtual void Foam::probes::findElements(const Foam::fvMesh&)
    in file probes/probes.C at line 122
    Did not find location (-0.006183323 -0.003227813 0.0005) in any cell. Skipping location.
--> FOAM Warning : 
    From function virtual void Foam::probes::findElements(const Foam::fvMesh&)
    in file probes/probes.C at line 122
    Did not find location (-0.006183323 -0.002921437 0.0005) in any cell. Skipping location.
--> FOAM Warning : 
    From function virtual void Foam::probes::findElements(const Foam::fvMesh&)
    in file probes/probes.C at line 122
    Did not find location (-0.006183323 -0.002615062 0.0005) in any cell. Skipping location.
--> FOAM Warning : 
    From function virtual void Foam::probes::findElements(const Foam::fvMesh&)
    in file probes/probes.C at line 122
    Did not find location (-0.006183323 -0.002308687 0.0005) in any cell. Skipping location.
--> FOAM Warning : 
    From function virtual void Foam::probes::findElements(const Foam::fvMesh&)
    in file probes/probes.C at line 122
    Did not find location (-0.006183323 -0.002002312 0.0005) in any cell. Skipping location.
--> FOAM Warning : 
    From function virtual void Foam::probes::findElements(const Foam::fvMesh&)
    in file probes/probes.C at line 122
    Did not find location (-0.006183323 -0.001695938 0.0005) in any cell. Skipping location.
--> FOAM Warning : 
    From function virtual void Foam::probes::findElements(const Foam::fvMesh&)
    in file probes/probes.C at line 122
    Did not find location (-0.006183323 -0.001389562 0.0005) in any cell. Skipping location.
--> FOAM Warning : 
    From function virtual void Foam::probes::findElements(const Foam::fvMesh&)
    in file probes/probes.C at line 122
    Did not find location (-0.006183323 -0.001083187 0.0005) in any cell. Skipping location.
--> FOAM Warning : 
    From function virtual void Foam::probes::findElements(const Foam::fvMesh&)
    in file probes/probes.C at line 122
    Did not find location (-0.006183323 -0.0007768125 0.0005) in any cell. Skipping location.
--> FOAM Warning : 
    From function virtual void Foam::probes::findElements(const Foam::fvMesh&)
    in file probes/probes.C at line 122
    Did not find location (-0.006183323 -0.0004704375 0.0005) in any cell. Skipping location.
--> FOAM Warning : 
    From function virtual void Foam::probes::findElements(const Foam::fvMesh&)
    in file probes/probes.C at line 122
    Did not find location (-0.006183323 -0.0001640625 0.0005) in any cell. Skipping location.
--> FOAM Warning : 
    From function virtual void Foam::probes::findElements(const Foam::fvMesh&)
    in file probes/probes.C at line 122
    Did not find location (-0.006183323 0.0001423125 0.0005) in any cell. Skipping location.
--> FOAM Warning : 
    From function virtual void Foam::probes::findElements(const Foam::fvMesh&)
    in file probes/probes.C at line 122
    Did not find location (-0.006183323 0.0004486875 0.0005) in any cell. Skipping location.
--> FOAM Warning : 
    From function virtual void Foam::probes::findElements(const Foam::fvMesh&)
    in file probes/probes.C at line 122
    Did not find location (-0.006183323 0.0007550625 0.0005) in any cell. Skipping location.
--> FOAM Warning : 
    From function virtual void Foam::probes::findElements(const Foam::fvMesh&)
    in file probes/probes.C at line 122
    Did not find location (-0.006183323 0.001061437 0.0005) in any cell. Skipping location.
--> FOAM Warning : 
    From function virtual void Foam::probes::findElements(const Foam::fvMesh&)
    in file probes/probes.C at line 122
    Did not find location (-0.006183323 0.001367813 0.0005) in any cell. Skipping location.
--> FOAM Warning : 
    From function virtual void Foam::probes::findElements(const Foam::fvMesh&)
    in file probes/probes.C at line 122
    Did not find location (-0.005882167 -0.008129812 0.0005) in any cell. Skipping location.
--> FOAM Warning : 
    From function virtual void Foam::probes::findElements(const Foam::fvMesh&)
    in file probes/probes.C at line 122
    Did not find location (-0.005882167 -0.007823438 0.0005) in any cell. Skipping location.
--> FOAM Warning : 
    From function virtual void Foam::probes::findElements(const Foam::fvMesh&)
    in file probes/probes.C at line 122
    Did not find location (-0.005882167 -0.007517062 0.0005) in any cell. Skipping location.
--> FOAM Warning : 
    From function virtual void Foam::probes::findElements(const Foam::fvMesh&)
    in file probes/probes.C at line 122
    Did not find location (-0.005882167 -0.007210688 0.0005) in any cell. Skipping location.
--> FOAM Warning : 
    From function virtual void Foam::probes::findElements(const Foam::fvMesh&)
    in file probes/probes.C at line 122
    Did not find location (-0.005882167 -0.006904312 0.0005) in any cell. Skipping location.
--> FOAM Warning : 
    From function virtual void Foam::probes::findElements(const Foam::fvMesh&)
    in file probes/probes.C at line 122
    Did not find location (-0.005882167 -0.006597938 0.0005) in any cell. Skipping location.
--> FOAM Warning : 
    From function virtual void Foam::probes::findElements(const Foam::fvMesh&)
    in file probes/probes.C at line 122
    Did not find location (-0.005882167 -0.006291562 0.0005) in any cell. Skipping location.
--> FOAM Warning : 
    From function virtual void Foam::probes::findElements(const Foam::fvMesh&)
    in file probes/probes.C at line 122
    Did not find location (-0.005882167 -0.005985188 0.0005) in any cell. Skipping location.
--> FOAM Warning : 
    From function virtual void Foam::probes::findElements(const Foam::fvMesh&)
    in file probes/probes.C at line 122
    Did not find location (-0.005882167 -0.005678813 0.0005) in any cell. Skipping location.
--> FOAM Warning : 
    From function virtual void Foam::probes::findElements(const Foam::fvMesh&)
    in file probes/probes.C at line 122
    Did not find location (-0.005882167 -0.005372437 0.0005) in any cell. Skipping location.
--> FOAM Warning : 
    From function virtual void Foam::probes::findElements(const Foam::fvMesh&)
    in file probes/probes.C at line 122
    Did not find location (-0.005882167 -0.005066063 0.0005) in any cell. Skipping location.
--> FOAM Warning : 
    From function virtual void Foam::probes::findElements(const Foam::fvMesh&)
    in file probes/probes.C at line 122
    Did not find location (-0.005882167 -0.004759687 0.0005) in any cell. Skipping location.
--> FOAM Warning : 
    From function virtual void Foam::probes::findElements(const Foam::fvMesh&)
    in file probes/probes.C at line 122
    Did not find location (-0.005882167 -0.004453313 0.0005) in any cell. Skipping location.
--> FOAM Warning : 
    From function virtual void Foam::probes::findElements(const Foam::fvMesh&)
    in file probes/probes.C at line 122
    Did not find location (-0.005882167 -0.004146937 0.0005) in any cell. Skipping location.
--> FOAM Warning : 
    From function virtual void Foam::probes::findElements(const Foam::fvMesh&)
    in file probes/probes.C at line 122
    Did not find location (-0.005882167 -0.003840563 0.0005) in any cell. Skipping location.
--> FOAM Warning : 
    From function virtual void Foam::probes::findElements(const Foam::fvMesh&)
    in file probes/probes.C at line 122
    Did not find location (-0.005882167 -0.003534188 0.0005) in any cell. Skipping location.
--> FOAM Warning : 
    From function virtual void Foam::probes::findElements(const Foam::fvMesh&)
    in file probes/probes.C at line 122
    Did not find location (-0.005882167 -0.003227813 0.0005) in any cell. Skipping location.
--> FOAM Warning : 
    From function virtual void Foam::probes::findElements(const Foam::fvMesh&)
    in file probes/probes.C at line 122
    Did not find location (-0.005882167 -0.002921437 0.0005) in any cell. Skipping location.
--> FOAM Warning : 
    From function virtual void Foam::probes::findElements(const Foam::fvMesh&)
    in file probes/probes.C at line 122
    Did not find location (-0.005882167 -0.002615062 0.0005) in any cell. Skipping location.
--> FOAM Warning : 
    From function virtual void Foam::probes::findElements(const Foam::fvMesh&)
    in file probes/probes.C at line 122
    Did not find location (-0.005882167 -0.002308687 0.0005) in any cell. Skipping location.
--> FOAM Warning : 
    From function virtual void Foam::probes::findElements(const Foam::fvMesh&)
    in file probes/probes.C at line 122
    Did not find location (-0.005882167 -0.002002312 0.0005) in any cell. Skipping location.
--> FOAM Warning : 
    From function virtual void Foam::probes::findElements(const Foam::fvMesh&)
    in file probes/probes.C at line 122
    Did not find location (-0.005882167 -0.001695938 0.0005) in any cell. Skipping location.
--> FOAM Warning : 
    From function virtual void Foam::probes::findElements(const Foam::fvMesh&)
    in file probes/probes.C at line 122
    Did not find location (-0.005882167 -0.001389562 0.0005) in any cell. Skipping location.
--> FOAM Warning : 
    From function virtual void Foam::probes::findElements(const Foam::fvMesh&)
    in file probes/probes.C at line 122
    Did not find location (-0.005882167 -0.001083187 0.0005) in any cell. Skipping location.
--> FOAM Warning : 
    From function virtual void Foam::probes::findElements(const Foam::fvMesh&)
    in file probes/probes.C at line 122
    Did not find location (-0.005882167 -0.0007768125 0.0005) in any cell. Skipping location.
--> FOAM Warning : 
    From function virtual void Foam::probes::findElements(const Foam::fvMesh&)
    in file probes/probes.C at line 122
    Did not find location (-0.005882167 -0.0004704375 0.0005) in any cell. Skipping location.
--> FOAM Warning : 
    From function virtual void Foam::probes::findElements(const Foam::fvMesh&)
    in file probes/probes.C at line 122
    Did not find location (-0.005882167 -0.0001640625 0.0005) in any cell. Skipping location.
--> FOAM Warning : 
    From function virtual void Foam::probes::findElements(const Foam::fvMesh&)
    in file probes/probes.C at line 122
    Did not find location (-0.005882167 0.0001423125 0.0005) in any cell. Skipping location.
--> FOAM Warning : 
    From function virtual void Foam::probes::findElements(const Foam::fvMesh&)
    in file probes/probes.C at line 122
    Did not find location (-0.005882167 0.0004486875 0.0005) in any cell. Skipping location.
--> FOAM Warning : 
    From function virtual void Foam::probes::findElements(const Foam::fvMesh&)
    in file probes/probes.C at line 122
    Did not find location (-0.005882167 0.0007550625 0.0005) in any cell. Skipping location.
--> FOAM Warning : 
    From function virtual void Foam::probes::findElements(const Foam::fvMesh&)
    in file probes/probes.C at line 122
    Did not find location (-0.005882167 0.001061437 0.0005) in any cell. Skipping location.
--> FOAM Warning : 
    From function virtual void Foam::probes::findElements(const Foam::fvMesh&)
    in file probes/probes.C at line 122
    Did not find location (-0.005882167 0.001367813 0.0005) in any cell. Skipping location.
--> FOAM Warning : 
    From function virtual void Foam::probes::findElements(const Foam::fvMesh&)
    in file probes/probes.C at line 122
    Did not find location (-0.00558101 -0.008129812 0.0005) in any cell. Skipping location.
--> FOAM Warning : 
    From function virtual void Foam::probes::findElements(const Foam::fvMesh&)
    in file probes/probes.C at line 122
    Did not find location (-0.00558101 -0.007823438 0.0005) in any cell. Skipping location.
--> FOAM Warning : 
    From function virtual void Foam::probes::findElements(const Foam::fvMesh&)
    in file probes/probes.C at line 122
    Did not find location (-0.00558101 -0.007517062 0.0005) in any cell. Skipping location.
--> FOAM Warning : 
    From function virtual void Foam::probes::findElements(const Foam::fvMesh&)
    in file probes/probes.C at line 122
    Did not find location (-0.00558101 -0.007210688 0.0005) in any cell. Skipping location.
--> FOAM Warning : 
    From function virtual void Foam::probes::findElements(const Foam::fvMesh&)
    in file probes/probes.C at line 122
    Did not find location (-0.00558101 -0.006904312 0.0005) in any cell. Skipping location.
--> FOAM Warning : 
    From function virtual void Foam::probes::findElements(const Foam::fvMesh&)
    in file probes/probes.C at line 122
    Did not find location (-0.00558101 -0.006597938 0.0005) in any cell. Skipping location.
--> FOAM Warning : 
    From function virtual void Foam::probes::findElements(const Foam::fvMesh&)
    in file probes/probes.C at line 122
    Did not find location (-0.00558101 -0.006291562 0.0005) in any cell. Skipping location.
--> FOAM Warning : 
    From function virtual void Foam::probes::findElements(const Foam::fvMesh&)
    in file probes/probes.C at line 122
    Did not find location (-0.00558101 -0.005985188 0.0005) in any cell. Skipping location.
--> FOAM Warning : 
    From function virtual void Foam::probes::findElements(const Foam::fvMesh&)
    in file probes/probes.C at line 122
    Did not find location (-0.00558101 -0.005678813 0.0005) in any cell. Skipping location.
--> FOAM Warning : 
    From function virtual void Foam::probes::findElements(const Foam::fvMesh&)
    in file probes/probes.C at line 122
    Did not find location (-0.00558101 -0.005372437 0.0005) in any cell. Skipping location.
--> FOAM Warning : 
    From function virtual void Foam::probes::findElements(const Foam::fvMesh&)
    in file probes/probes.C at line 122
    Did not find location (-0.00558101 -0.005066063 0.0005) in any cell. Skipping location.
--> FOAM Warning : 
    From function virtual void Foam::probes::findElements(const Foam::fvMesh&)
    in file probes/probes.C at line 122
    Did not find location (-0.00558101 -0.004759687 0.0005) in any cell. Skipping location.
--> FOAM Warning : 
    From function virtual void Foam::probes::findElements(const Foam::fvMesh&)
    in file probes/probes.C at line 122
    Did not find location (-0.00558101 -0.004453313 0.0005) in any cell. Skipping location.
--> FOAM Warning : 
    From function virtual void Foam::probes::findElements(const Foam::fvMesh&)
    in file probes/probes.C at line 122
    Did not find location (-0.00558101 -0.004146937 0.0005) in any cell. Skipping location.
--> FOAM Warning : 
    From function virtual void Foam::probes::findElements(const Foam::fvMesh&)
    in file probes/probes.C at line 122
    Did not find location (-0.00558101 -0.003840563 0.0005) in any cell. Skipping location.
--> FOAM Warning : 
    From function virtual void Foam::probes::findElements(const Foam::fvMesh&)
    in file probes/probes.C at line 122
    Did not find location (-0.00558101 -0.003534188 0.0005) in any cell. Skipping location.
--> FOAM Warning : 
    From function virtual void Foam::probes::findElements(const Foam::fvMesh&)
    in file probes/probes.C at line 122
    Did not find location (-0.00558101 -0.003227813 0.0005) in any cell. Skipping location.
--> FOAM Warning : 
    From function virtual void Foam::probes::findElements(const Foam::fvMesh&)
    in file probes/probes.C at line 122
    Did not find location (-0.00558101 -0.002921437 0.0005) in any cell. Skipping location.
--> FOAM Warning : 
    From function virtual void Foam::probes::findElements(const Foam::fvMesh&)
    in file probes/probes.C at line 122
    Did not find location (-0.00558101 -0.002615062 0.0005) in any cell. Skipping location.
--> FOAM Warning : 
    From function virtual void Foam::probes::findElements(const Foam::fvMesh&)
    in file probes/probes.C at line 122
    Did not find location (-0.00558101 -0.002308687 0.0005) in any cell. Skipping location.
--> FOAM Warning : 
    From function virtual void Foam::probes::findElements(const Foam::fvMesh&)
    in file probes/probes.C at line 122
    Did not find location (-0.00558101 -0.002002312 0.0005) in any cell. Skipping location.
--> FOAM Warning : 
    From function virtual void Foam::probes::findElements(const Foam::fvMesh&)
    in file probes/probes.C at line 122
    Did not find location (-0.00558101 -0.001695938 0.0005) in any cell. Skipping location.
--> FOAM Warning : 
    From function virtual void Foam::probes::findElements(const Foam::fvMesh&)
    in file probes/probes.C at line 122
    Did not find location (-0.00558101 -0.001389562 0.0005) in any cell. Skipping location.
--> FOAM Warning : 
    From function virtual void Foam::probes::findElements(const Foam::fvMesh&)
    in file probes/probes.C at line 122
    Did not find location (-0.00558101 -0.001083187 0.0005) in any cell. Skipping location.
--> FOAM Warning : 
    From function virtual void Foam::probes::findElements(const Foam::fvMesh&)
    in file probes/probes.C at line 122
    Did not find location (-0.00558101 -0.0007768125 0.0005) in any cell. Skipping location.
--> FOAM Warning : 
    From function virtual void Foam::probes::findElements(const Foam::fvMesh&)
    in file probes/probes.C at line 122
    Did not find location (-0.00558101 -0.0004704375 0.0005) in any cell. Skipping location.
--> FOAM Warning : 
    From function virtual void Foam::probes::findElements(const Foam::fvMesh&)
    in file probes/probes.C at line 122
    Did not find location (-0.00558101 -0.0001640625 0.0005) in any cell. Skipping location.
--> FOAM Warning : 
    From function virtual void Foam::probes::findElements(const Foam::fvMesh&)
    in file probes/probes.C at line 122
    Did not find location (-0.00558101 0.0001423125 0.0005) in any cell. Skipping location.
--> FOAM Warning : 
    From function virtual void Foam::probes::findElements(const Foam::fvMesh&)
    in file probes/probes.C at line 122
    Did not find location (-0.00558101 0.0004486875 0.0005) in any cell. Skipping location.
--> FOAM Warning : 
    From function virtual void Foam::probes::findElements(const Foam::fvMesh&)
    in file probes/probes.C at line 122
    Did not find location (-0.00558101 0.0007550625 0.0005) in any cell. Skipping location.
--> FOAM Warning : 
    From function virtual void Foam::probes::findElements(const Foam::fvMesh&)
    in file probes/probes.C at line 122
    Did not find location (-0.00558101 0.001061437 0.0005) in any cell. Skipping location.
--> FOAM Warning : 
    From function virtual void Foam::probes::findElements(const Foam::fvMesh&)
    in file probes/probes.C at line 122
    Did not find location (-0.00558101 0.001367813 0.0005) in any cell. Skipping location.
--> FOAM Warning : 
    From function virtual void Foam::probes::findElements(const Foam::fvMesh&)
    in file probes/probes.C at line 122
    Did not find location (-0.005279853 -0.008129812 0.0005) in any cell. Skipping location.
--> FOAM Warning : 
    From function virtual void Foam::probes::findElements(const Foam::fvMesh&)
    in file probes/probes.C at line 122
    Did not find location (-0.005279853 -0.007823438 0.0005) in any cell. Skipping location.
--> FOAM Warning : 
    From function virtual void Foam::probes::findElements(const Foam::fvMesh&)
    in file probes/probes.C at line 122
    Did not find location (-0.005279853 -0.007517062 0.0005) in any cell. Skipping location.
--> FOAM Warning : 
    From function virtual void Foam::probes::findElements(const Foam::fvMesh&)
    in file probes/probes.C at line 122
    Did not find location (-0.005279853 -0.007210688 0.0005) in any cell. Skipping location.
--> FOAM Warning : 
    From function virtual void Foam::probes::findElements(const Foam::fvMesh&)
    in file probes/probes.C at line 122
    Did not find location (-0.005279853 -0.006904312 0.0005) in any cell. Skipping location.
--> FOAM Warning : 
    From function virtual void Foam::probes::findElements(const Foam::fvMesh&)
    in file probes/probes.C at line 122
    Did not find location (-0.005279853 -0.006597938 0.0005) in any cell. Skipping location.
--> FOAM Warning : 
    From function virtual void Foam::probes::findElements(const Foam::fvMesh&)
    in file probes/probes.C at line 122
    Did not find location (-0.005279853 -0.006291562 0.0005) in any cell. Skipping location.
--> FOAM Warning : 
    From function virtual void Foam::probes::findElements(const Foam::fvMesh&)
    in file probes/probes.C at line 122
    Did not find location (-0.005279853 -0.005985188 0.0005) in any cell. Skipping location.
--> FOAM Warning : 
    From function virtual void Foam::probes::findElements(const Foam::fvMesh&)
    in file probes/probes.C at line 122
    Did not find location (-0.005279853 -0.005678813 0.0005) in any cell. Skipping location.
--> FOAM Warning : 
    From function virtual void Foam::probes::findElements(const Foam::fvMesh&)
    in file probes/probes.C at line 122
    Did not find location (-0.005279853 -0.005372437 0.0005) in any cell. Skipping location.
--> FOAM Warning : 
    From function virtual void Foam::probes::findElements(const Foam::fvMesh&)
    in file probes/probes.C at line 122
    Did not find location (-0.005279853 -0.005066063 0.0005) in any cell. Skipping location.
--> FOAM Warning : 
    From function virtual void Foam::probes::findElements(const Foam::fvMesh&)
    in file probes/probes.C at line 122
    Did not find location (-0.005279853 -0.004759687 0.0005) in any cell. Skipping location.
--> FOAM Warning : 
    From function virtual void Foam::probes::findElements(const Foam::fvMesh&)
    in file probes/probes.C at line 122
    Did not find location (-0.005279853 -0.004453313 0.0005) in any cell. Skipping location.
--> FOAM Warning : 
    From function virtual void Foam::probes::findElements(const Foam::fvMesh&)
    in file probes/probes.C at line 122
    Did not find location (-0.005279853 -0.004146937 0.0005) in any cell. Skipping location.
--> FOAM Warning : 
    From function virtual void Foam::probes::findElements(const Foam::fvMesh&)
[...]
smoothSolver:  Solving for k, Initial residual = 3.607733e-09, Final residual = 3.607733e-09, No Iterations 0
ExecutionTime = 348.81 s  ClockTime = 361 s

Time = 377

smoothSolver:  Solving for Ux, Initial residual = 0.0003220504, Final residual = 9.438815e-06, No Iterations 2
smoothSolver:  Solving for Uy, Initial residual = 0.0004869048, Final residual = 1.332952e-05, No Iterations 2
smoothSolver:  Solving for T, Initial residual = 0.001033317, Final residual = 3.31905e-05, No Iterations 3
GAMG:  Solving for p_rgh, Initial residual = 0.0001201714, Final residual = 8.611175e-08, No Iterations 10
GAMG:  Solving for p_rgh, Initial residual = 1.16993e-05, Final residual = 7.792912e-09, No Iterations 7
GAMG:  Solving for p_rgh, Initial residual = 2.230911e-06, Final residual = 6.948166e-09, No Iterations 5
time step continuity errors : sum local = 1.419399e-08, global = 8.25023e-10, cumulative = 9.269268e-07
smoothSolver:  Solving for epsilon, Initial residual = 5.587214e-09, Final residual = 5.587214e-09, No Iterations 0
smoothSolver:  Solving for k, Initial residual = 3.607773e-09, Final residual = 3.607773e-09, No Iterations 0
ExecutionTime = 350.21 s  ClockTime = 362 s

Time = 378

smoothSolver:  Solving for Ux, Initial residual = 0.0003213025, Final residual = 9.417284e-06, No Iterations 2
smoothSolver:  Solving for Uy, Initial residual = 0.0004868013, Final residual = 1.332546e-05, No Iterations 2
smoothSolver:  Solving for T, Initial residual = 0.001031162, Final residual = 3.312914e-05, No Iterations 3
GAMG:  Solving for p_rgh, Initial residual = 0.0001203061, Final residual = 8.616726e-08, No Iterations 10
GAMG:  Solving for p_rgh, Initial residual = 1.147726e-05, Final residual = 7.707651e-09, No Iterations 7
GAMG:  Solving for p_rgh, Initial residual = 2.193622e-06, Final residual = 6.790712e-09, No Iterations 5
time step continuity errors : sum local = 1.386471e-08, global = 7.560095e-10, cumulative = 9.276828e-07
smoothSolver:  Solving for epsilon, Initial residual = 5.587253e-09, Final residual = 5.587253e-09, No Iterations 0
smoothSolver:  Solving for k, Initial residual = 3.607813e-09, Final residual = 3.607813e-09, No Iterations 0
ExecutionTime = 351.49 s  ClockTime = 363 s

Time = 379

smoothSolver:  Solving for Ux, Initial residual = 0.0003205567, Final residual = 9.395764e-06, No Iterations 2
smoothSolver:  Solving for Uy, Initial residual = 0.0004866954, Final residual = 1.332135e-05, No Iterations 2
smoothSolver:  Solving for T, Initial residual = 0.001029015, Final residual = 3.306799e-05, No Iterations 3
GAMG:  Solving for p_rgh, Initial residual = 0.0001204086, Final residual = 8.646821e-08, No Iterations 10
GAMG:  Solving for p_rgh, Initial residual = 1.116643e-05, Final residual = 7.350158e-09, No Iterations 7
GAMG:  Solving for p_rgh, Initial residual = 2.096277e-06, Final residual = 6.96684e-09, No Iterations 5
time step continuity errors : sum local = 1.421678e-08, global = 7.655484e-10, cumulative = 9.284484e-07
smoothSolver:  Solving for epsilon, Initial residual = 5.587291e-09, Final residual = 5.587291e-09, No Iterations 0
smoothSolver:  Solving for k, Initial residual = 3.607852e-09, Final residual = 3.607852e-09, No Iterations 0
ExecutionTime = 352.75 s  ClockTime = 365 s

Time = 380

smoothSolver:  Solving for Ux, Initial residual = 0.000319814, Final residual = 9.374334e-06, No Iterations 2
smoothSolver:  Solving for Uy, Initial residual = 0.0004865863, Final residual = 1.331716e-05, No Iterations 2
smoothSolver:  Solving for T, Initial residual = 0.001026875, Final residual = 3.300702e-05, No Iterations 3
GAMG:  Solving for p_rgh, Initial residual = 0.0001205434, Final residual = 8.685438e-08, No Iterations 10
GAMG:  Solving for p_rgh, Initial residual = 1.077563e-05, Final residual = 7.524309e-09, No Iterations 7
GAMG:  Solving for p_rgh, Initial residual = 2.039824e-06, Final residual = 6.991217e-09, No Iterations 5
time step continuity errors : sum local = 1.425924e-08, global = 9.35099e-10, cumulative = 9.293835e-07
smoothSolver:  Solving for epsilon, Initial residual = 5.587329e-09, Final residual = 5.587329e-09, No Iterations 0
smoothSolver:  Solving for k, Initial residual = 3.607891e-09, Final residual = 3.607891e-09, No Iterations 0
ExecutionTime = 353.88 s  ClockTime = 366 s

Time = 381

smoothSolver:  Solving for Ux, Initial residual = 0.0003190731, Final residual = 9.35297e-06, No Iterations 2
smoothSolver:  Solving for Uy, Initial residual = 0.0004864757, Final residual = 1.33129e-05, No Iterations 2
smoothSolver:  Solving for T, Initial residual = 0.001024743, Final residual = 3.294624e-05, No Iterations 3
GAMG:  Solving for p_rgh, Initial residual = 0.0001206406, Final residual = 8.736037e-08, No Iterations 10
GAMG:  Solving for p_rgh, Initial residual = 1.086147e-05, Final residual = 7.874064e-09, No Iterations 7
GAMG:  Solving for p_rgh, Initial residual = 2.089211e-06, Final residual = 6.701672e-09, No Iterations 5
time step continuity errors : sum local = 1.366193e-08, global = 8.290861e-10, cumulative = 9.302126e-07
smoothSolver:  Solving for epsilon, Initial residual = 5.587367e-09, Final residual = 5.587367e-09, No Iterations 0
smoothSolver:  Solving for k, Initial residual = 3.60793e-09, Final residual = 3.60793e-09, No Iterations 0
ExecutionTime = 355.11 s  ClockTime = 367 s

Time = 382

smoothSolver:  Solving for Ux, Initial residual = 0.0003183341, Final residual = 9.33167e-06, No Iterations 2
smoothSolver:  Solving for Uy, Initial residual = 0.0004863637, Final residual = 1.330864e-05, No Iterations 2
smoothSolver:  Solving for T, Initial residual = 0.001022621, Final residual = 3.288571e-05, No Iterations 3
GAMG:  Solving for p_rgh, Initial residual = 0.000120843, Final residual = 8.780877e-08, No Iterations 10
GAMG:  Solving for p_rgh, Initial residual = 1.064418e-05, Final residual = 7.370122e-09, No Iterations 7
GAMG:  Solving for p_rgh, Initial residual = 2.046339e-06, Final residual = 6.940356e-09, No Iterations 5
time step continuity errors : sum local = 1.413721e-08, global = 1.056735e-09, cumulative = 9.312693e-07
smoothSolver:  Solving for epsilon, Initial residual = 5.587405e-09, Final residual = 5.587405e-09, No Iterations 0
smoothSolver:  Solving for k, Initial residual = 3.607969e-09, Final residual = 3.607969e-09, No Iterations 0
ExecutionTime = 356.5 s  ClockTime = 368 s

Time = 383

smoothSolver:  Solving for Ux, Initial residual = 0.0003175974, Final residual = 9.310431e-06, No Iterations 2
smoothSolver:  Solving for Uy, Initial residual = 0.0004862487, Final residual = 1.330423e-05, No Iterations 2
smoothSolver:  Solving for T, Initial residual = 0.001020511, Final residual = 3.282548e-05, No Iterations 3
GAMG:  Solving for p_rgh, Initial residual = 0.0001209034, Final residual = 8.802505e-08, No Iterations 10
GAMG:  Solving for p_rgh, Initial residual = 1.082875e-05, Final residual = 6.9729e-09, No Iterations 7
GAMG:  Solving for p_rgh, Initial residual = 2.081951e-06, Final residual = 6.906269e-09, No Iterations 5
time step continuity errors : sum local = 1.404839e-08, global = 1.056336e-09, cumulative = 9.323256e-07
smoothSolver:  Solving for epsilon, Initial residual = 5.587442e-09, Final residual = 5.587442e-09, No Iterations 0
smoothSolver:  Solving for k, Initial residual = 3.608011e-09, Final residual = 3.608011e-09, No Iterations 0
ExecutionTime = 357.83 s  ClockTime = 370 s

Time = 384

smoothSolver:  Solving for Ux, Initial residual = 0.0003168591, Final residual = 9.289098e-06, No Iterations 2
smoothSolver:  Solving for Uy, Initial residual = 0.0004861271, Final residual = 1.329962e-05, No Iterations 2
smoothSolver:  Solving for T, Initial residual = 0.001018411, Final residual = 3.276555e-05, No Iterations 3
GAMG:  Solving for p_rgh, Initial residual = 0.0001202577, Final residual = 8.854358e-08, No Iterations 10
GAMG:  Solving for p_rgh, Initial residual = 1.071404e-05, Final residual = 7.121004e-09, No Iterations 7
GAMG:  Solving for p_rgh, Initial residual = 2.118105e-06, Final residual = 6.866909e-09, No Iterations 5
time step continuity errors : sum local = 1.394944e-08, global = 1.009762e-09, cumulative = 9.333354e-07
smoothSolver:  Solving for epsilon, Initial residual = 5.58748e-09, Final residual = 5.58748e-09, No Iterations 0
smoothSolver:  Solving for k, Initial residual = 3.608053e-09, Final residual = 3.608053e-09, No Iterations 0
ExecutionTime = 359.3 s  ClockTime = 371 s

Time = 385

smoothSolver:  Solving for Ux, Initial residual = 0.0003161236, Final residual = 9.26785e-06, No Iterations 2
smoothSolver:  Solving for Uy, Initial residual = 0.0004859988, Final residual = 1.329495e-05, No Iterations 2
smoothSolver:  Solving for T, Initial residual = 0.001016323, Final residual = 3.270593e-05, No Iterations 3
GAMG:  Solving for p_rgh, Initial residual = 0.0001203817, Final residual = 8.894631e-08, No Iterations 10
GAMG:  Solving for p_rgh, Initial residual = 1.069676e-05, Final residual = 7.080716e-09, No Iterations 7
GAMG:  Solving for p_rgh, Initial residual = 2.059541e-06, Final residual = 6.806232e-09, No Iterations 5
time step continuity errors : sum local = 1.380773e-08, global = 1.002472e-09, cumulative = 9.343379e-07
smoothSolver:  Solving for epsilon, Initial residual = 5.587517e-09, Final residual = 5.587517e-09, No Iterations 0
smoothSolver:  Solving for k, Initial residual = 3.608098e-09, Final residual = 3.608098e-09, No Iterations 0
ExecutionTime = 360.4 s  ClockTime = 372 s

Time = 386

smoothSolver:  Solving for Ux, Initial residual = 0.0003153905, Final residual = 9.246696e-06, No Iterations 2
smoothSolver:  Solving for Uy, Initial residual = 0.0004858673, Final residual = 1.32902e-05, No Iterations 2
smoothSolver:  Solving for T, Initial residual = 0.001014246, Final residual = 3.264662e-05, No Iterations 3
GAMG:  Solving for p_rgh, Initial residual = 0.000120657, Final residual = 8.937824e-08, No Iterations 10
GAMG:  Solving for p_rgh, Initial residual = 1.024925e-05, Final residual = 6.966957e-09, No Iterations 7
GAMG:  Solving for p_rgh, Initial residual = 1.64071e-06, Final residual = 6.698407e-09, No Iterations 5
time step continuity errors : sum local = 1.357109e-08, global = 1.053434e-09, cumulative = 9.353913e-07
smoothSolver:  Solving for epsilon, Initial residual = 5.587554e-09, Final residual = 5.587554e-09, No Iterations 0
smoothSolver:  Solving for k, Initial residual = 3.608145e-09, Final residual = 3.608145e-09, No Iterations 0
ExecutionTime = 361.68 s  ClockTime = 374 s

Time = 387

smoothSolver:  Solving for Ux, Initial residual = 0.00031466, Final residual = 9.225569e-06, No Iterations 2
smoothSolver:  Solving for Uy, Initial residual = 0.0004857336, Final residual = 1.328542e-05, No Iterations 2
smoothSolver:  Solving for T, Initial residual = 0.00101218, Final residual = 3.258761e-05, No Iterations 3
GAMG:  Solving for p_rgh, Initial residual = 0.0001208487, Final residual = 8.981532e-08, No Iterations 10
GAMG:  Solving for p_rgh, Initial residual = 9.791572e-06, Final residual = 6.813519e-09, No Iterations 7
GAMG:  Solving for p_rgh, Initial residual = 1.645239e-06, Final residual = 6.599638e-09, No Iterations 5
time step continuity errors : sum local = 1.335361e-08, global = 9.690736e-10, cumulative = 9.363604e-07
smoothSolver:  Solving for epsilon, Initial residual = 5.58759e-09, Final residual = 5.58759e-09, No Iterations 0
smoothSolver:  Solving for k, Initial residual = 3.608197e-09, Final residual = 3.608197e-09, No Iterations 0
ExecutionTime = 363.46 s  ClockTime = 375 s

Time = 388

smoothSolver:  Solving for Ux, Initial residual = 0.0003139319, Final residual = 9.204451e-06, No Iterations 2
smoothSolver:  Solving for Uy, Initial residual = 0.0004855976, Final residual = 1.328066e-05, No Iterations 2
smoothSolver:  Solving for T, Initial residual = 0.001010125, Final residual = 3.252891e-05, No Iterations 3
GAMG:  Solving for p_rgh, Initial residual = 0.0001213536, Final residual = 9.024411e-08, No Iterations 10
GAMG:  Solving for p_rgh, Initial residual = 9.702162e-06, Final residual = 6.718256e-09, No Iterations 7
GAMG:  Solving for p_rgh, Initial residual = 1.587033e-06, Final residual = 6.822667e-09, No Iterations 5
time step continuity errors : sum local = 1.378718e-08, global = 1.037256e-09, cumulative = 9.373976e-07
smoothSolver:  Solving for epsilon, Initial residual = 5.587627e-09, Final residual = 5.587627e-09, No Iterations 0
smoothSolver:  Solving for k, Initial residual = 3.608251e-09, Final residual = 3.608251e-09, No Iterations 0
ExecutionTime = 365.36 s  ClockTime = 377 s

Time = 389

smoothSolver:  Solving for Ux, Initial residual = 0.0003132057, Final residual = 9.183351e-06, No Iterations 2
smoothSolver:  Solving for Uy, Initial residual = 0.0004854683, Final residual = 1.327583e-05, No Iterations 2
smoothSolver:  Solving for T, Initial residual = 0.001008081, Final residual = 3.247051e-05, No Iterations 3
GAMG:  Solving for p_rgh, Initial residual = 0.0001216478, Final residual = 9.05708e-08, No Iterations 10
GAMG:  Solving for p_rgh, Initial residual = 1.022655e-05, Final residual = 6.818269e-09, No Iterations 7
GAMG:  Solving for p_rgh, Initial residual = 1.767787e-06, Final residual = 7.438765e-09, No Iterations 5
time step continuity errors : sum local = 1.50131e-08, global = 1.244949e-09, cumulative = 9.386426e-07
smoothSolver:  Solving for epsilon, Initial residual = 5.587663e-09, Final residual = 5.587663e-09, No Iterations 0
smoothSolver:  Solving for k, Initial residual = 3.608306e-09, Final residual = 3.608306e-09, No Iterations 0
ExecutionTime = 367.35 s  ClockTime = 379 s

Time = 390

smoothSolver:  Solving for Ux, Initial residual = 0.0003124812, Final residual = 9.162295e-06, No Iterations 2
smoothSolver:  Solving for Uy, Initial residual = 0.0004853327, Final residual = 1.327076e-05, No Iterations 2
smoothSolver:  Solving for T, Initial residual = 0.001006047, Final residual = 3.24124e-05, No Iterations 3
GAMG:  Solving for p_rgh, Initial residual = 0.0001219017, Final residual = 9.086673e-08, No Iterations 10
GAMG:  Solving for p_rgh, Initial residual = 1.022862e-05, Final residual = 6.652378e-09, No Iterations 7
GAMG:  Solving for p_rgh, Initial residual = 1.778835e-06, Final residual = 7.455438e-09, No Iterations 5
time step continuity errors : sum local = 1.502791e-08, global = 1.177901e-09, cumulative = 9.398205e-07
smoothSolver:  Solving for epsilon, Initial residual = 5.587699e-09, Final residual = 5.587699e-09, No Iterations 0
smoothSolver:  Solving for k, Initial residual = 3.608362e-09, Final residual = 3.608362e-09, No Iterations 0
ExecutionTime = 368.5 s  ClockTime = 381 s

Time = 391

smoothSolver:  Solving for Ux, Initial residual = 0.0003117569, Final residual = 9.141245e-06, No Iterations 2
smoothSolver:  Solving for Uy, Initial residual = 0.0004851819, Final residual = 1.326526e-05, No Iterations 2
smoothSolver:  Solving for T, Initial residual = 0.001004025, Final residual = 3.235459e-05, No Iterations 3
GAMG:  Solving for p_rgh, Initial residual = 0.0001222611, Final residual = 9.126804e-08, No Iterations 10
GAMG:  Solving for p_rgh, Initial residual = 1.019675e-05, Final residual = 6.561089e-09, No Iterations 7
GAMG:  Solving for p_rgh, Initial residual = 1.761376e-06, Final residual = 7.379606e-09, No Iterations 5
time step continuity errors : sum local = 1.485664e-08, global = 1.104104e-09, cumulative = 9.409246e-07
smoothSolver:  Solving for epsilon, Initial residual = 5.587735e-09, Final residual = 5.587735e-09, No Iterations 0
smoothSolver:  Solving for k, Initial residual = 3.60842e-09, Final residual = 3.60842e-09, No Iterations 0
ExecutionTime = 370.25 s  ClockTime = 382 s

Time = 392

smoothSolver:  Solving for Ux, Initial residual = 0.0003110334, Final residual = 9.120234e-06, No Iterations 2
smoothSolver:  Solving for Uy, Initial residual = 0.0004850233, Final residual = 1.325957e-05, No Iterations 2
smoothSolver:  Solving for T, Initial residual = 0.001002013, Final residual = 3.229707e-05, No Iterations 3
GAMG:  Solving for p_rgh, Initial residual = 0.0001225507, Final residual = 9.170494e-08, No Iterations 10
GAMG:  Solving for p_rgh, Initial residual = 1.012257e-05, Final residual = 6.563278e-09, No Iterations 7
GAMG:  Solving for p_rgh, Initial residual = 1.761109e-06, Final residual = 7.368222e-09, No Iterations 5
time step continuity errors : sum local = 1.481561e-08, global = 1.054301e-09, cumulative = 9.419789e-07
smoothSolver:  Solving for epsilon, Initial residual = 5.587771e-09, Final residual = 5.587771e-09, No Iterations 0
smoothSolver:  Solving for k, Initial residual = 3.608478e-09, Final residual = 3.608478e-09, No Iterations 0
ExecutionTime = 371.92 s  ClockTime = 384 s

Time = 393

smoothSolver:  Solving for Ux, Initial residual = 0.0003103138, Final residual = 9.099315e-06, No Iterations 2
smoothSolver:  Solving for Uy, Initial residual = 0.0004848582, Final residual = 1.325376e-05, No Iterations 2
smoothSolver:  Solving for T, Initial residual = 0.001000011, Final residual = 3.223982e-05, No Iterations 3
GAMG:  Solving for p_rgh, Initial residual = 0.000122764, Final residual = 9.214967e-08, No Iterations 10
GAMG:  Solving for p_rgh, Initial residual = 1.01114e-05, Final residual = 6.617627e-09, No Iterations 7
GAMG:  Solving for p_rgh, Initial residual = 1.754891e-06, Final residual = 7.344263e-09, No Iterations 5
time step continuity errors : sum local = 1.474964e-08, global = 1.06639e-09, cumulative = 9.430453e-07
smoothSolver:  Solving for epsilon, Initial residual = 5.587806e-09, Final residual = 5.587806e-09, No Iterations 0
smoothSolver:  Solving for k, Initial residual = 3.608536e-09, Final residual = 3.608536e-09, No Iterations 0
ExecutionTime = 373.2 s  ClockTime = 385 s

Time = 394

smoothSolver:  Solving for Ux, Initial residual = 0.0003095961, Final residual = 9.078453e-06, No Iterations 2
smoothSolver:  Solving for Uy, Initial residual = 0.0004846901, Final residual = 1.324788e-05, No Iterations 2
smoothSolver:  Solving for T, Initial residual = 0.0009980189, Final residual = 3.218286e-05, No Iterations 3
GAMG:  Solving for p_rgh, Initial residual = 0.0001229369, Final residual = 9.258413e-08, No Iterations 10
GAMG:  Solving for p_rgh, Initial residual = 1.009622e-05, Final residual = 6.766235e-09, No Iterations 7
GAMG:  Solving for p_rgh, Initial residual = 1.742193e-06, Final residual = 7.280317e-09, No Iterations 5
time step continuity errors : sum local = 1.460382e-08, global = 1.116552e-09, cumulative = 9.441618e-07
smoothSolver:  Solving for epsilon, Initial residual = 5.587841e-09, Final residual = 5.587841e-09, No Iterations 0
smoothSolver:  Solving for k, Initial residual = 3.608594e-09, Final residual = 3.608594e-09, No Iterations 0
ExecutionTime = 374.69 s  ClockTime = 387 s


SIMPLE solution converged in 394 iterations

streamLine streamLines write:
    seeded 20 particles
    Tracks:20
    Total samples:16231
    Writing data to "/home/ofuser/workingDir/butterfly/Duct_Simulation430oclock_9/processor0/../postProcessing/sets/streamLines/394"
runTimePostProcessing postPro1 output:
    Constructing scene
    Generating image: "/home/ofuser/workingDir/butterfly/Duct_Simulation430oclock_9/processor0/../postProcessing/postPro1/394/image.0000.png"
End

Finalising parallel run
-------------------------------------------------------
Primary job  terminated normally, but 1 process returned
a non-zero exit code.. Per user-direction, the job has been aborted.
-------------------------------------------------------
--------------------------------------------------------------------------
mpirun detected that one or more processes exited with non-zero status, thus causing
the job to be terminated. The first process to do so was:

  Process name: [[39725,1],1]
  Exit code:    127
--------------------------------------------------------------------------
