/*---------------------------------------------------------------------------*\
| =========                 |                                                 |
| \\      /  F ield         | OpenFOAM: The Open Source CFD Toolbox           |
|  \\    /   O peration     | Version:  v1706                                 |
|   \\  /    A nd           | Web:      www.OpenFOAM.com                      |
|    \\/     M anipulation  |                                                 |
\*---------------------------------------------------------------------------*/
Build  : v1706
Arch   : "LSB;label=32;scalar=64"
Exec   : reconstructPar
Date   : Nov 30 2017
Time   : 11:12:39
Host   : "default"
PID    : 14652
Case   : /home/ofuser/workingDir/butterfly/Duct_Simulation430oclock_9
nProcs : 1
sigFpe : Enabling floating point exception trapping (FOAM_SIGFPE).
fileModificationChecking : Monitoring run-time modified files using timeStampMaster (fileModificationSkew 10)
allowSystemOperations : Allowing user-supplied system call operations

// * * * * * * * * * * * * * * * * * * * * * * * * * * * * * * * * * * * * * //
Create time



Reconstructing fields for mesh region0

Time = 394

Reconstructing FV fields

    Reconstructing volScalarFields

        alphat
        nut
        p_rgh
        p
        T
        k
        epsilon

    Reconstructing volVectorFields

        U

    Reconstructing surfaceScalarFields

        phi

Reconstructing point fields

No point fields

No lagrangian fields


End

